*SPICE netlist created from BLIF module modulo_area by blif2BSpice
.include /usr/share/qflow/tech/osu018/osu018_stdcells.sp
.subckt modulo_area vdd gnd inicio bloque_bytes[0] bloque_bytes[1] bloque_bytes[2] bloque_bytes[3] bloque_bytes[4] bloque_bytes[5] bloque_bytes[6] bloque_bytes[7] bloque_bytes[8] bloque_bytes[9] bloque_bytes[10] bloque_bytes[11] bloque_bytes[12] bloque_bytes[13] bloque_bytes[14] bloque_bytes[15] bloque_bytes[16] bloque_bytes[17] bloque_bytes[18] bloque_bytes[19] bloque_bytes[20] bloque_bytes[21] bloque_bytes[22] bloque_bytes[23] bloque_bytes[24] bloque_bytes[25] bloque_bytes[26] bloque_bytes[27] bloque_bytes[28] bloque_bytes[29] bloque_bytes[30] bloque_bytes[31] bloque_bytes[32] bloque_bytes[33] bloque_bytes[34] bloque_bytes[35] bloque_bytes[36] bloque_bytes[37] bloque_bytes[38] bloque_bytes[39] bloque_bytes[40] bloque_bytes[41] bloque_bytes[42] bloque_bytes[43] bloque_bytes[44] bloque_bytes[45] bloque_bytes[46] bloque_bytes[47] bloque_bytes[48] bloque_bytes[49] bloque_bytes[50] bloque_bytes[51] bloque_bytes[52] bloque_bytes[53] bloque_bytes[54] bloque_bytes[55] bloque_bytes[56] bloque_bytes[57] bloque_bytes[58] bloque_bytes[59] bloque_bytes[60] bloque_bytes[61] bloque_bytes[62] bloque_bytes[63] bloque_bytes[64] bloque_bytes[65] bloque_bytes[66] bloque_bytes[67] bloque_bytes[68] bloque_bytes[69] bloque_bytes[70] bloque_bytes[71] bloque_bytes[72] bloque_bytes[73] bloque_bytes[74] bloque_bytes[75] bloque_bytes[76] bloque_bytes[77] bloque_bytes[78] bloque_bytes[79] bloque_bytes[80] bloque_bytes[81] bloque_bytes[82] bloque_bytes[83] bloque_bytes[84] bloque_bytes[85] bloque_bytes[86] bloque_bytes[87] bloque_bytes[88] bloque_bytes[89] bloque_bytes[90] bloque_bytes[91] bloque_bytes[92] bloque_bytes[93] bloque_bytes[94] bloque_bytes[95] clk reset target[0] target[1] target[2] target[3] target[4] target[5] target[6] target[7] terminado hash[0] hash[1] hash[2] hash[3] hash[4] hash[5] hash[6] hash[7] hash[8] hash[9] hash[10] hash[11] hash[12] hash[13] hash[14] hash[15] hash[16] hash[17] hash[18] hash[19] hash[20] hash[21] hash[22] hash[23] 
XCLKBUF1_1 clk vdd gnd clk_bF$buf7 CLKBUF1
XCLKBUF1_2 clk vdd gnd clk_bF$buf6 CLKBUF1
XCLKBUF1_3 clk vdd gnd clk_bF$buf5 CLKBUF1
XCLKBUF1_4 clk vdd gnd clk_bF$buf4 CLKBUF1
XCLKBUF1_5 clk vdd gnd clk_bF$buf3 CLKBUF1
XCLKBUF1_6 clk vdd gnd clk_bF$buf2 CLKBUF1
XCLKBUF1_7 clk vdd gnd clk_bF$buf1 CLKBUF1
XCLKBUF1_8 clk vdd gnd clk_bF$buf0 CLKBUF1
XBUFX4_1 vdd gnd _2200_ _2200__bF$buf4 BUFX4
XBUFX4_2 vdd gnd _2200_ _2200__bF$buf3 BUFX4
XBUFX4_3 vdd gnd _2200_ _2200__bF$buf2 BUFX4
XBUFX4_4 vdd gnd _2200_ _2200__bF$buf1 BUFX4
XBUFX4_5 vdd gnd _2200_ _2200__bF$buf0 BUFX4
XBUFX4_6 vdd gnd reset reset_bF$buf5 BUFX4
XBUFX4_7 vdd gnd reset reset_bF$buf4 BUFX4
XBUFX4_8 vdd gnd reset reset_bF$buf3 BUFX4
XBUFX4_9 vdd gnd reset reset_bF$buf2 BUFX4
XBUFX4_10 vdd gnd reset reset_bF$buf1 BUFX4
XBUFX4_11 vdd gnd reset reset_bF$buf0 BUFX4
XINVX1_1 _101_ _29_ vdd gnd INVX1
XINVX1_2 reset_bF$buf0 _30_ vdd gnd INVX1
XINVX1_3 target[7] _31_ vdd gnd INVX1
XINVX2_1 vdd gnd _32_ micro_ucr_hash1.hash[22] INVX2
XOAI22X1_1 gnd vdd target[6] _32_ _31_ micro_ucr_hash1.hash[23] _33_ OAI22X1
XINVX2_2 vdd gnd _34_ micro_ucr_hash1.hash[23] INVX2
XINVX2_3 vdd gnd _35_ target[6] INVX2
XOAI22X1_2 gnd vdd _35_ micro_ucr_hash1.hash[22] _34_ target[7] _36_ OAI22X1
XNOR2X1_1 vdd _36_ gnd _37_ _33_ NOR2X1
XINVX1_4 micro_ucr_hash1.hash[21] _38_ vdd gnd INVX1
XINVX1_5 micro_ucr_hash1.hash[20] _39_ vdd gnd INVX1
XAOI22X1_1 gnd vdd _39_ target[4] _40_ _38_ target[5] AOI22X1
XINVX2_4 vdd gnd _41_ target[5] INVX2
XINVX1_6 target[4] _42_ vdd gnd INVX1
XAOI22X1_2 gnd vdd micro_ucr_hash1.hash[20] _42_ _43_ _41_ micro_ucr_hash1.hash[21] AOI22X1
XNAND3X1_1 _43_ vdd gnd _40_ _37_ _44_ NAND3X1
XINVX2_5 vdd gnd _45_ target[3] INVX2
XINVX2_6 vdd gnd _46_ micro_ucr_hash1.hash[18] INVX2
XOAI22X1_3 gnd vdd target[2] _46_ _45_ micro_ucr_hash1.hash[19] _47_ OAI22X1
XINVX2_7 vdd gnd _48_ micro_ucr_hash1.hash[19] INVX2
XINVX2_8 vdd gnd _49_ target[2] INVX2
XOAI22X1_4 gnd vdd _49_ micro_ucr_hash1.hash[18] _48_ target[3] _50_ OAI22X1
XNOR2X1_2 vdd _50_ gnd _51_ _47_ NOR2X1
XINVX2_9 vdd gnd _52_ target[1] INVX2
XINVX1_7 micro_ucr_hash1.hash[17] _53_ vdd gnd INVX1
XINVX1_8 micro_ucr_hash1.hash[16] _54_ vdd gnd INVX1
XOAI22X1_5 gnd vdd target[0] _54_ _53_ target[1] _55_ OAI22X1
XOAI21X1_1 gnd vdd micro_ucr_hash1.hash[17] _52_ _56_ _55_ OAI21X1
XNAND2X1_1 vdd _57_ gnd target[3] _48_ NAND2X1
XNOR2X1_3 vdd _48_ gnd _58_ target[3] NOR2X1
XNAND2X1_2 vdd _59_ gnd target[2] _46_ NAND2X1
XOAI21X1_2 gnd vdd _58_ _59_ _60_ _57_ OAI21X1
XAOI21X1_1 gnd vdd _56_ _51_ _61_ _60_ AOI21X1
XAOI21X1_2 gnd vdd micro_ucr_hash1.hash[21] _41_ _62_ _40_ AOI21X1
XNAND2X1_3 vdd _63_ gnd target[7] _34_ NAND2X1
XNOR2X1_4 vdd _34_ gnd _64_ target[7] NOR2X1
XNAND2X1_4 vdd _65_ gnd target[6] _32_ NAND2X1
XOAI21X1_3 gnd vdd _64_ _65_ _66_ _63_ OAI21X1
XAOI21X1_3 gnd vdd _62_ _37_ _67_ _66_ AOI21X1
XOAI21X1_4 gnd vdd _61_ _44_ _68_ _67_ OAI21X1
XXNOR2X1_1 target[7] micro_ucr_hash1.hash[15] gnd vdd _69_ XNOR2X1
XXNOR2X1_2 target[6] micro_ucr_hash1.hash[14] gnd vdd _70_ XNOR2X1
XAND2X2_1 vdd gnd _69_ _70_ _71_ AND2X2
XINVX2_10 vdd gnd _72_ micro_ucr_hash1.hash[13] INVX2
XINVX1_9 micro_ucr_hash1.hash[12] _73_ vdd gnd INVX1
XAOI22X1_3 gnd vdd target[4] _73_ _74_ _72_ target[5] AOI22X1
XAOI22X1_4 gnd vdd _42_ micro_ucr_hash1.hash[12] _75_ _41_ micro_ucr_hash1.hash[13] AOI22X1
XAND2X2_2 vdd gnd _74_ _75_ _76_ AND2X2
XNAND2X1_5 vdd _77_ gnd _76_ _71_ NAND2X1
XOAI22X1_6 gnd vdd micro_ucr_hash1.hash[10] _49_ _45_ micro_ucr_hash1.hash[11] _78_ OAI22X1
XINVX2_11 vdd gnd _79_ micro_ucr_hash1.hash[11] INVX2
XINVX2_12 vdd gnd _80_ micro_ucr_hash1.hash[10] INVX2
XOAI22X1_7 gnd vdd _80_ target[2] _79_ target[3] _81_ OAI22X1
XNOR2X1_5 vdd _81_ gnd _82_ _78_ NOR2X1
XINVX1_10 micro_ucr_hash1.hash[9] _83_ vdd gnd INVX1
XINVX1_11 micro_ucr_hash1.hash[8] _84_ vdd gnd INVX1
XOAI22X1_8 gnd vdd _84_ target[0] _83_ target[1] _85_ OAI22X1
XOAI21X1_5 gnd vdd _52_ micro_ucr_hash1.hash[9] _86_ _85_ OAI21X1
XNAND2X1_6 vdd _87_ gnd target[3] _79_ NAND2X1
XNAND2X1_7 vdd _88_ gnd target[2] _80_ NAND2X1
XNOR2X1_6 vdd _79_ gnd _89_ target[3] NOR2X1
XOAI21X1_6 gnd vdd _89_ _88_ _90_ _87_ OAI21X1
XAOI21X1_4 gnd vdd _86_ _82_ _91_ _90_ AOI21X1
XNAND2X1_8 vdd _92_ gnd target[5] _72_ NAND2X1
XNAND2X1_9 vdd _93_ gnd target[4] _73_ NAND2X1
XNOR2X1_7 vdd _72_ gnd _94_ target[5] NOR2X1
XOAI21X1_7 gnd vdd _94_ _93_ _95_ _92_ OAI21X1
XINVX1_12 micro_ucr_hash1.hash[15] _96_ vdd gnd INVX1
XNAND2X1_10 vdd _97_ gnd target[7] _96_ NAND2X1
XNOR2X1_8 vdd _96_ gnd _98_ target[7] NOR2X1
XOR2X2_1 _99_ micro_ucr_hash1.hash[14] vdd gnd _35_ OR2X2
XOAI21X1_8 gnd vdd _99_ _98_ _100_ _97_ OAI21X1
XAOI21X1_5 gnd vdd _95_ _71_ _1_ _100_ AOI21X1
XOAI21X1_9 gnd vdd _91_ _77_ _2_ _1_ OAI21X1
XAOI22X1_5 gnd vdd micro_ucr_hash1.hash[22] _35_ _3_ _34_ target[7] AOI22X1
XAOI22X1_6 gnd vdd _32_ target[6] _4_ _31_ micro_ucr_hash1.hash[23] AOI22X1
XNAND2X1_11 vdd _5_ gnd _3_ _4_ NAND2X1
XNAND2X1_12 vdd _6_ gnd _40_ _43_ NAND2X1
XNOR2X1_9 vdd _6_ gnd _7_ _5_ NOR2X1
XNAND2X1_13 vdd _8_ gnd _69_ _70_ NAND2X1
XNAND2X1_14 vdd _9_ gnd _74_ _75_ NAND2X1
XNOR2X1_10 vdd _8_ gnd _10_ _9_ NOR2X1
XAOI22X1_7 gnd vdd target[2] _80_ _11_ _79_ target[3] AOI22X1
XAOI22X1_8 gnd vdd _49_ micro_ucr_hash1.hash[10] _12_ _45_ micro_ucr_hash1.hash[11] AOI22X1
XNAND2X1_15 vdd _13_ gnd _11_ _12_ NAND2X1
XNAND2X1_16 vdd _14_ gnd target[1] _83_ NAND2X1
XINVX1_13 target[0] _15_ vdd gnd INVX1
XAOI22X1_9 gnd vdd _15_ micro_ucr_hash1.hash[8] _16_ _52_ micro_ucr_hash1.hash[9] AOI22X1
XNAND2X1_17 vdd _17_ gnd target[0] _84_ NAND2X1
XNAND3X1_2 _17_ vdd gnd _14_ _16_ _18_ NAND3X1
XNOR2X1_11 vdd _18_ gnd _19_ _13_ NOR2X1
XAOI22X1_10 gnd vdd micro_ucr_hash1.hash[18] _49_ _20_ _48_ target[3] AOI22X1
XAOI22X1_11 gnd vdd _46_ target[2] _21_ _45_ micro_ucr_hash1.hash[19] AOI22X1
XNAND2X1_18 vdd _22_ gnd _20_ _21_ NAND2X1
XAOI22X1_12 gnd vdd micro_ucr_hash1.hash[16] _15_ _23_ _52_ micro_ucr_hash1.hash[17] AOI22X1
XAOI22X1_13 gnd vdd _54_ target[0] _24_ _53_ target[1] AOI22X1
XNAND2X1_19 vdd _25_ gnd _23_ _24_ NAND2X1
XNOR2X1_12 vdd _25_ gnd _26_ _22_ NOR2X1
XAOI22X1_14 gnd vdd _19_ _10_ _27_ _7_ _26_ AOI22X1
XNAND3X1_3 _68_ vdd gnd _27_ _2_ _28_ NAND3X1
XAOI21X1_6 gnd vdd _29_ _28_ _0_ _30_ AOI21X1
XBUFX2_1 vdd gnd gnd hash[0] BUFX2
XBUFX2_2 vdd gnd gnd hash[1] BUFX2
XBUFX2_3 vdd gnd gnd hash[2] BUFX2
XBUFX2_4 vdd gnd gnd hash[3] BUFX2
XBUFX2_5 vdd gnd gnd hash[4] BUFX2
XBUFX2_6 vdd gnd gnd hash[5] BUFX2
XBUFX2_7 vdd gnd gnd hash[6] BUFX2
XBUFX2_8 vdd gnd gnd hash[7] BUFX2
XBUFX2_9 vdd gnd gnd hash[8] BUFX2
XBUFX2_10 vdd gnd gnd hash[9] BUFX2
XBUFX2_11 vdd gnd gnd hash[10] BUFX2
XBUFX2_12 vdd gnd gnd hash[11] BUFX2
XBUFX2_13 vdd gnd gnd hash[12] BUFX2
XBUFX2_14 vdd gnd gnd hash[13] BUFX2
XBUFX2_15 vdd gnd gnd hash[14] BUFX2
XBUFX2_16 vdd gnd gnd hash[15] BUFX2
XBUFX2_17 vdd gnd gnd hash[16] BUFX2
XBUFX2_18 vdd gnd gnd hash[17] BUFX2
XBUFX2_19 vdd gnd gnd hash[18] BUFX2
XBUFX2_20 vdd gnd gnd hash[19] BUFX2
XBUFX2_21 vdd gnd gnd hash[20] BUFX2
XBUFX2_22 vdd gnd gnd hash[21] BUFX2
XBUFX2_23 vdd gnd gnd hash[22] BUFX2
XBUFX2_24 vdd gnd gnd hash[23] BUFX2
XBUFX2_25 vdd gnd _101_ terminado BUFX2
XDFFPOSX1_1 vdd _0_ gnd _101_ clk_bF$buf2 DFFPOSX1
XXOR2X1_1 micro_ucr_hash1.a[1][0] vdd gnd micro_ucr_hash1.b[1][4] gnd XOR2X1
XXOR2X1_2 micro_ucr_hash1.a[1][1] vdd gnd micro_ucr_hash1.b[1][5] gnd XOR2X1
XXOR2X1_3 micro_ucr_hash1.a[1][2] vdd gnd micro_ucr_hash1.b[1][6] gnd XOR2X1
XXOR2X1_4 micro_ucr_hash1.a[1][3] vdd gnd micro_ucr_hash1.b[1][7] gnd XOR2X1
XXOR2X1_5 micro_ucr_hash1.a[1][4] vdd gnd micro_ucr_hash1.c[0][4] gnd XOR2X1
XXOR2X1_6 micro_ucr_hash1.a[1][5] vdd vdd micro_ucr_hash1.c[0][5] gnd XOR2X1
XXOR2X1_7 micro_ucr_hash1.a[1][6] vdd vdd micro_ucr_hash1.c[0][6] gnd XOR2X1
XXOR2X1_8 micro_ucr_hash1.a[1][7] vdd vdd micro_ucr_hash1.c[0][7] gnd XOR2X1
XINVX2_13 vdd gnd _103_ bloque_bytes[80] INVX2
XXNOR2X1_3 gnd micro_ucr_hash1.a[0][0] gnd vdd _104_ XNOR2X1
XXNOR2X1_4 _104_ _103_ gnd vdd micro_ucr_hash1.b[2][4] XNOR2X1
XNAND2X1_20 vdd _105_ gnd _103_ _104_ NAND2X1
XOR2X2_2 _106_ micro_ucr_hash1.a[0][1] vdd gnd gnd OR2X2
XNAND2X1_21 vdd _107_ gnd gnd micro_ucr_hash1.a[0][1] NAND2X1
XNAND3X1_4 _107_ vdd gnd bloque_bytes[81] _106_ _108_ NAND3X1
XINVX1_14 bloque_bytes[81] _109_ vdd gnd INVX1
XNOR2X1_13 vdd micro_ucr_hash1.a[0][1] gnd _110_ gnd NOR2X1
XAND2X2_3 vdd gnd gnd micro_ucr_hash1.a[0][1] _111_ AND2X2
XOAI21X1_10 gnd vdd _111_ _110_ _112_ _109_ OAI21X1
XNAND2X1_22 vdd _113_ gnd _112_ _108_ NAND2X1
XXNOR2X1_5 _113_ _105_ gnd vdd micro_ucr_hash1.b[2][5] XNOR2X1
XNAND3X1_5 _112_ vdd gnd _108_ _105_ _114_ NAND3X1
XNOR3X1_1 vdd gnd _110_ _111_ _109_ _115_ NOR3X1
XINVX1_15 bloque_bytes[82] _116_ vdd gnd INVX1
XNOR2X1_14 vdd micro_ucr_hash1.a[0][2] gnd _117_ gnd NOR2X1
XAND2X2_4 vdd gnd gnd micro_ucr_hash1.a[0][2] _118_ AND2X2
XNOR3X1_2 vdd gnd _117_ _118_ _116_ _119_ NOR3X1
XOR2X2_3 _120_ micro_ucr_hash1.a[0][2] vdd gnd gnd OR2X2
XNAND2X1_23 vdd _121_ gnd gnd micro_ucr_hash1.a[0][2] NAND2X1
XAOI21X1_7 gnd vdd _121_ _120_ _122_ bloque_bytes[82] AOI21X1
XOAI21X1_11 gnd vdd _119_ _122_ _123_ _115_ OAI21X1
XNAND3X1_6 _121_ vdd gnd bloque_bytes[82] _120_ _124_ NAND3X1
XOAI21X1_12 gnd vdd _118_ _117_ _125_ _116_ OAI21X1
XNAND3X1_7 _108_ vdd gnd _125_ _124_ _126_ NAND3X1
XNAND2X1_24 vdd _127_ gnd _126_ _123_ NAND2X1
XXNOR2X1_6 _127_ _114_ gnd vdd micro_ucr_hash1.b[2][6] XNOR2X1
XNAND3X1_8 _125_ vdd gnd _124_ _115_ _128_ NAND3X1
XOAI21X1_13 gnd vdd _119_ _122_ _129_ _108_ OAI21X1
XNAND2X1_25 vdd _130_ gnd _128_ _129_ NAND2X1
XOAI21X1_14 gnd vdd _130_ _114_ _131_ _128_ OAI21X1
XINVX1_16 bloque_bytes[83] _132_ vdd gnd INVX1
XNOR2X1_15 vdd micro_ucr_hash1.a[0][3] gnd _133_ gnd NOR2X1
XAND2X2_5 vdd gnd gnd micro_ucr_hash1.a[0][3] _134_ AND2X2
XOAI21X1_15 gnd vdd _134_ _133_ _135_ _132_ OAI21X1
XOR2X2_4 _136_ micro_ucr_hash1.a[0][3] vdd gnd gnd OR2X2
XNAND2X1_26 vdd _137_ gnd gnd micro_ucr_hash1.a[0][3] NAND2X1
XNAND3X1_9 _137_ vdd gnd bloque_bytes[83] _136_ _138_ NAND3X1
XAOI21X1_8 gnd vdd _135_ _138_ _139_ _124_ AOI21X1
XNAND3X1_10 _137_ vdd gnd _132_ _136_ _140_ NAND3X1
XOAI21X1_16 gnd vdd _134_ _133_ _141_ bloque_bytes[83] OAI21X1
XAOI21X1_9 gnd vdd _141_ _140_ _142_ _119_ AOI21X1
XNOR2X1_16 vdd _142_ gnd _102_ _139_ NOR2X1
XXOR2X1_9 micro_ucr_hash1.b[2][7] vdd _102_ _131_ gnd XOR2X1
XXOR2X1_10 micro_ucr_hash1.a[2][0] vdd gnd micro_ucr_hash1.b[2][4] gnd XOR2X1
XXOR2X1_11 micro_ucr_hash1.a[2][1] vdd gnd micro_ucr_hash1.b[2][5] gnd XOR2X1
XXOR2X1_12 micro_ucr_hash1.a[2][2] vdd gnd micro_ucr_hash1.b[2][6] gnd XOR2X1
XXOR2X1_13 micro_ucr_hash1.a[2][3] vdd gnd micro_ucr_hash1.b[2][7] gnd XOR2X1
XINVX2_14 vdd gnd _212_ bloque_bytes[72] INVX2
XXNOR2X1_7 gnd micro_ucr_hash1.a[1][0] gnd vdd _213_ XNOR2X1
XXNOR2X1_8 _213_ _212_ gnd vdd micro_ucr_hash1.b[3][4] XNOR2X1
XNAND2X1_27 vdd _214_ gnd _212_ _213_ NAND2X1
XOR2X2_5 _215_ micro_ucr_hash1.a[1][1] vdd gnd gnd OR2X2
XNAND2X1_28 vdd _216_ gnd gnd micro_ucr_hash1.a[1][1] NAND2X1
XNAND3X1_11 _216_ vdd gnd bloque_bytes[73] _215_ _217_ NAND3X1
XINVX1_17 bloque_bytes[73] _218_ vdd gnd INVX1
XNOR2X1_17 vdd micro_ucr_hash1.a[1][1] gnd _219_ gnd NOR2X1
XAND2X2_6 vdd gnd gnd micro_ucr_hash1.a[1][1] _220_ AND2X2
XOAI21X1_17 gnd vdd _220_ _219_ _221_ _218_ OAI21X1
XNAND2X1_29 vdd _222_ gnd _221_ _217_ NAND2X1
XXNOR2X1_9 _222_ _214_ gnd vdd micro_ucr_hash1.b[3][5] XNOR2X1
XNAND3X1_12 _221_ vdd gnd _217_ _214_ _223_ NAND3X1
XNOR3X1_3 vdd gnd _219_ _220_ _218_ _224_ NOR3X1
XINVX1_18 bloque_bytes[74] _225_ vdd gnd INVX1
XNOR2X1_18 vdd micro_ucr_hash1.a[1][2] gnd _226_ gnd NOR2X1
XAND2X2_7 vdd gnd gnd micro_ucr_hash1.a[1][2] _227_ AND2X2
XNOR3X1_4 vdd gnd _226_ _227_ _225_ _228_ NOR3X1
XOR2X2_6 _229_ micro_ucr_hash1.a[1][2] vdd gnd gnd OR2X2
XNAND2X1_30 vdd _230_ gnd gnd micro_ucr_hash1.a[1][2] NAND2X1
XAOI21X1_10 gnd vdd _230_ _229_ _231_ bloque_bytes[74] AOI21X1
XOAI21X1_18 gnd vdd _228_ _231_ _232_ _224_ OAI21X1
XNAND3X1_13 _230_ vdd gnd bloque_bytes[74] _229_ _233_ NAND3X1
XOAI21X1_19 gnd vdd _227_ _226_ _234_ _225_ OAI21X1
XNAND3X1_14 _217_ vdd gnd _234_ _233_ _235_ NAND3X1
XNAND2X1_31 vdd _236_ gnd _235_ _232_ NAND2X1
XXNOR2X1_10 _236_ _223_ gnd vdd micro_ucr_hash1.b[3][6] XNOR2X1
XNAND3X1_15 _234_ vdd gnd _233_ _224_ _237_ NAND3X1
XOAI21X1_20 gnd vdd _228_ _231_ _238_ _217_ OAI21X1
XNAND2X1_32 vdd _239_ gnd _237_ _238_ NAND2X1
XOAI21X1_21 gnd vdd _239_ _223_ _240_ _237_ OAI21X1
XINVX1_19 bloque_bytes[75] _241_ vdd gnd INVX1
XNOR2X1_19 vdd micro_ucr_hash1.a[1][3] gnd _242_ gnd NOR2X1
XAND2X2_8 vdd gnd gnd micro_ucr_hash1.a[1][3] _243_ AND2X2
XOAI21X1_22 gnd vdd _243_ _242_ _244_ _241_ OAI21X1
XOR2X2_7 _245_ micro_ucr_hash1.a[1][3] vdd gnd gnd OR2X2
XNAND2X1_33 vdd _246_ gnd gnd micro_ucr_hash1.a[1][3] NAND2X1
XNAND3X1_16 _246_ vdd gnd bloque_bytes[75] _245_ _247_ NAND3X1
XAOI21X1_11 gnd vdd _244_ _247_ _248_ _233_ AOI21X1
XNAND3X1_17 _246_ vdd gnd _241_ _245_ _249_ NAND3X1
XOAI21X1_23 gnd vdd _243_ _242_ _250_ bloque_bytes[75] OAI21X1
XAOI21X1_12 gnd vdd _250_ _249_ _251_ _228_ AOI21X1
XNOR2X1_20 vdd _251_ gnd _143_ _248_ NOR2X1
XXOR2X1_14 micro_ucr_hash1.b[3][7] vdd _143_ _240_ gnd XOR2X1
XINVX1_20 bloque_bytes[76] _144_ vdd gnd INVX1
XOR2X2_8 _145_ micro_ucr_hash1.a[1][4] vdd gnd micro_ucr_hash1.b[1][4] OR2X2
XNAND2X1_34 vdd _146_ gnd micro_ucr_hash1.b[1][4] micro_ucr_hash1.a[1][4] NAND2X1
XNAND3X1_18 _146_ vdd gnd _144_ _145_ _147_ NAND3X1
XNOR2X1_21 vdd micro_ucr_hash1.a[1][4] gnd _148_ micro_ucr_hash1.b[1][4] NOR2X1
XAND2X2_9 vdd gnd micro_ucr_hash1.b[1][4] micro_ucr_hash1.a[1][4] _149_ AND2X2
XOAI21X1_24 gnd vdd _149_ _148_ _150_ bloque_bytes[76] OAI21X1
XNAND3X1_19 _147_ vdd gnd _244_ _150_ _151_ NAND3X1
XAOI21X1_13 gnd vdd _246_ _245_ _152_ bloque_bytes[75] AOI21X1
XOAI21X1_25 gnd vdd _149_ _148_ _153_ _144_ OAI21X1
XNAND3X1_20 _146_ vdd gnd bloque_bytes[76] _145_ _154_ NAND3X1
XNAND3X1_21 _154_ vdd gnd _153_ _152_ _155_ NAND3X1
XAND2X2_10 vdd gnd _155_ _151_ _156_ AND2X2
XINVX2_15 vdd gnd _157_ _251_ INVX2
XNOR2X1_22 vdd _228_ gnd _158_ _231_ NOR2X1
XAOI21X1_14 gnd vdd _224_ _158_ _159_ _248_ AOI21X1
XOAI21X1_26 gnd vdd _239_ _223_ _160_ _159_ OAI21X1
XNAND2X1_35 vdd _161_ gnd _157_ _160_ NAND2X1
XXNOR2X1_11 _161_ _156_ gnd vdd micro_ucr_hash1.c[2][4] XNOR2X1
XNAND2X1_36 vdd _162_ gnd _151_ _155_ NAND2X1
XOAI21X1_27 gnd vdd _161_ _162_ _163_ _151_ OAI21X1
XINVX1_21 bloque_bytes[77] _164_ vdd gnd INVX1
XOR2X2_9 _165_ micro_ucr_hash1.a[1][5] vdd gnd micro_ucr_hash1.b[1][5] OR2X2
XNAND2X1_37 vdd _166_ gnd micro_ucr_hash1.b[1][5] micro_ucr_hash1.a[1][5] NAND2X1
XNAND3X1_22 _166_ vdd gnd _164_ _165_ _167_ NAND3X1
XNOR2X1_23 vdd micro_ucr_hash1.a[1][5] gnd _168_ micro_ucr_hash1.b[1][5] NOR2X1
XAND2X2_11 vdd gnd micro_ucr_hash1.b[1][5] micro_ucr_hash1.a[1][5] _169_ AND2X2
XOAI21X1_28 gnd vdd _169_ _168_ _170_ bloque_bytes[77] OAI21X1
XNAND3X1_23 _170_ vdd gnd _153_ _167_ _171_ NAND3X1
XAOI21X1_15 gnd vdd _146_ _145_ _172_ bloque_bytes[76] AOI21X1
XNAND3X1_24 _166_ vdd gnd bloque_bytes[77] _165_ _173_ NAND3X1
XOAI21X1_29 gnd vdd _169_ _168_ _174_ _164_ OAI21X1
XNAND3X1_25 _173_ vdd gnd _174_ _172_ _175_ NAND3X1
XNAND2X1_38 vdd _176_ gnd _171_ _175_ NAND2X1
XINVX2_16 vdd gnd _177_ _176_ INVX2
XXNOR2X1_12 _163_ _177_ gnd vdd micro_ucr_hash1.c[2][5] XNOR2X1
XAOI21X1_16 gnd vdd _171_ _175_ _178_ _162_ AOI21X1
XNAND3X1_26 _178_ vdd gnd _157_ _160_ _179_ NAND3X1
XNAND2X1_39 vdd _180_ gnd _174_ _173_ NAND2X1
XOR2X2_10 _181_ _172_ vdd gnd _180_ OR2X2
XINVX1_22 _181_ _182_ vdd gnd INVX1
XAOI21X1_17 gnd vdd _172_ _180_ _183_ _151_ AOI21X1
XNOR2X1_24 vdd _182_ gnd _184_ _183_ NOR2X1
XINVX1_23 bloque_bytes[78] _185_ vdd gnd INVX1
XXNOR2X1_13 micro_ucr_hash1.b[1][6] micro_ucr_hash1.a[1][6] gnd vdd _186_ XNOR2X1
XOR2X2_11 _187_ _185_ vdd gnd _186_ OR2X2
XNAND2X1_40 vdd _188_ gnd _185_ _186_ NAND2X1
XNAND2X1_41 vdd _189_ gnd _188_ _187_ NAND2X1
XOR2X2_12 _190_ _173_ vdd gnd _189_ OR2X2
XNAND2X1_42 vdd _191_ gnd _173_ _189_ NAND2X1
XNAND2X1_43 vdd _192_ gnd _191_ _190_ NAND2X1
XAOI21X1_18 gnd vdd _184_ _179_ _193_ _192_ AOI21X1
XNAND2X1_44 vdd _194_ gnd _176_ _156_ NAND2X1
XOAI21X1_30 gnd vdd _161_ _194_ _195_ _184_ OAI21X1
XINVX1_24 _192_ _196_ vdd gnd INVX1
XNOR2X1_25 vdd _195_ gnd _197_ _196_ NOR2X1
XNOR2X1_26 vdd _197_ gnd micro_ucr_hash1.c[2][6] _193_ NOR2X1
XINVX1_25 _237_ _198_ vdd gnd INVX1
XAOI21X1_19 gnd vdd _157_ _198_ _199_ _248_ AOI21X1
XAOI21X1_20 gnd vdd _212_ _213_ _200_ _222_ AOI21X1
XNAND3X1_27 _236_ vdd gnd _200_ _143_ _201_ NAND3X1
XAOI21X1_21 gnd vdd _199_ _201_ _202_ _194_ AOI21X1
XOAI21X1_31 gnd vdd _177_ _151_ _203_ _181_ OAI21X1
XOAI21X1_32 gnd vdd _202_ _203_ _204_ _196_ OAI21X1
XXOR2X1_15 _205_ vdd bloque_bytes[79] micro_ucr_hash1.b[1][7] gnd XOR2X1
XXNOR2X1_14 _205_ micro_ucr_hash1.a[1][7] gnd vdd _206_ XNOR2X1
XXNOR2X1_15 _206_ _187_ gnd vdd _207_ XNOR2X1
XNAND3X1_28 _207_ vdd gnd _190_ _204_ _208_ NAND3X1
XINVX1_26 _190_ _209_ vdd gnd INVX1
XINVX1_27 _207_ _210_ vdd gnd INVX1
XOAI21X1_33 gnd vdd _193_ _209_ _211_ _210_ OAI21X1
XNAND2X1_45 vdd micro_ucr_hash1.c[2][7] gnd _208_ _211_ NAND2X1
XXOR2X1_16 micro_ucr_hash1.a[3][0] vdd gnd micro_ucr_hash1.b[3][4] gnd XOR2X1
XXOR2X1_17 micro_ucr_hash1.a[3][1] vdd gnd micro_ucr_hash1.b[3][5] gnd XOR2X1
XXOR2X1_18 micro_ucr_hash1.a[3][2] vdd gnd micro_ucr_hash1.b[3][6] gnd XOR2X1
XXOR2X1_19 micro_ucr_hash1.a[3][3] vdd gnd micro_ucr_hash1.b[3][7] gnd XOR2X1
XXOR2X1_20 micro_ucr_hash1.a[3][4] vdd micro_ucr_hash1.b[2][4] micro_ucr_hash1.c[2][4] gnd XOR2X1
XXOR2X1_21 micro_ucr_hash1.a[3][5] vdd micro_ucr_hash1.b[2][5] micro_ucr_hash1.c[2][5] gnd XOR2X1
XXOR2X1_22 micro_ucr_hash1.a[3][6] vdd micro_ucr_hash1.b[2][6] micro_ucr_hash1.c[2][6] gnd XOR2X1
XXOR2X1_23 micro_ucr_hash1.a[3][7] vdd micro_ucr_hash1.b[2][7] micro_ucr_hash1.c[2][7] gnd XOR2X1
XINVX2_17 vdd gnd _253_ bloque_bytes[64] INVX2
XXNOR2X1_16 gnd micro_ucr_hash1.a[2][0] gnd vdd _254_ XNOR2X1
XXNOR2X1_17 _254_ _253_ gnd vdd micro_ucr_hash1.b[4][4] XNOR2X1
XNAND2X1_46 vdd _255_ gnd _253_ _254_ NAND2X1
XOR2X2_13 _256_ micro_ucr_hash1.a[2][1] vdd gnd gnd OR2X2
XNAND2X1_47 vdd _257_ gnd gnd micro_ucr_hash1.a[2][1] NAND2X1
XNAND3X1_29 _257_ vdd gnd bloque_bytes[65] _256_ _258_ NAND3X1
XINVX1_28 bloque_bytes[65] _259_ vdd gnd INVX1
XNOR2X1_27 vdd micro_ucr_hash1.a[2][1] gnd _260_ gnd NOR2X1
XAND2X2_12 vdd gnd gnd micro_ucr_hash1.a[2][1] _261_ AND2X2
XOAI21X1_34 gnd vdd _261_ _260_ _262_ _259_ OAI21X1
XNAND2X1_48 vdd _263_ gnd _262_ _258_ NAND2X1
XXNOR2X1_18 _263_ _255_ gnd vdd micro_ucr_hash1.b[4][5] XNOR2X1
XNAND3X1_30 _262_ vdd gnd _258_ _255_ _264_ NAND3X1
XNOR3X1_5 vdd gnd _260_ _261_ _259_ _265_ NOR3X1
XINVX1_29 bloque_bytes[66] _266_ vdd gnd INVX1
XNOR2X1_28 vdd micro_ucr_hash1.a[2][2] gnd _267_ gnd NOR2X1
XAND2X2_13 vdd gnd gnd micro_ucr_hash1.a[2][2] _268_ AND2X2
XNOR3X1_6 vdd gnd _267_ _268_ _266_ _269_ NOR3X1
XOR2X2_14 _270_ micro_ucr_hash1.a[2][2] vdd gnd gnd OR2X2
XNAND2X1_49 vdd _271_ gnd gnd micro_ucr_hash1.a[2][2] NAND2X1
XAOI21X1_22 gnd vdd _271_ _270_ _272_ bloque_bytes[66] AOI21X1
XOAI21X1_35 gnd vdd _269_ _272_ _273_ _265_ OAI21X1
XNAND3X1_31 _271_ vdd gnd bloque_bytes[66] _270_ _274_ NAND3X1
XOAI21X1_36 gnd vdd _268_ _267_ _275_ _266_ OAI21X1
XNAND3X1_32 _258_ vdd gnd _275_ _274_ _276_ NAND3X1
XNAND2X1_50 vdd _277_ gnd _276_ _273_ NAND2X1
XXNOR2X1_19 _277_ _264_ gnd vdd micro_ucr_hash1.b[4][6] XNOR2X1
XNAND3X1_33 _275_ vdd gnd _274_ _265_ _278_ NAND3X1
XOAI21X1_37 gnd vdd _269_ _272_ _279_ _258_ OAI21X1
XNAND2X1_51 vdd _280_ gnd _278_ _279_ NAND2X1
XOAI21X1_38 gnd vdd _280_ _264_ _281_ _278_ OAI21X1
XINVX1_30 bloque_bytes[67] _282_ vdd gnd INVX1
XNOR2X1_29 vdd micro_ucr_hash1.a[2][3] gnd _283_ gnd NOR2X1
XAND2X2_14 vdd gnd gnd micro_ucr_hash1.a[2][3] _284_ AND2X2
XOAI21X1_39 gnd vdd _284_ _283_ _285_ _282_ OAI21X1
XOR2X2_15 _286_ micro_ucr_hash1.a[2][3] vdd gnd gnd OR2X2
XNAND2X1_52 vdd _287_ gnd gnd micro_ucr_hash1.a[2][3] NAND2X1
XNAND3X1_34 _287_ vdd gnd bloque_bytes[67] _286_ _288_ NAND3X1
XAOI21X1_23 gnd vdd _285_ _288_ _289_ _274_ AOI21X1
XNAND3X1_35 _287_ vdd gnd _282_ _286_ _290_ NAND3X1
XOAI21X1_40 gnd vdd _284_ _283_ _291_ bloque_bytes[67] OAI21X1
XAOI21X1_24 gnd vdd _291_ _290_ _292_ _269_ AOI21X1
XNOR2X1_30 vdd _292_ gnd _252_ _289_ NOR2X1
XXOR2X1_24 micro_ucr_hash1.b[4][7] vdd _252_ _281_ gnd XOR2X1
XXOR2X1_25 micro_ucr_hash1.a[4][0] vdd gnd micro_ucr_hash1.b[4][4] gnd XOR2X1
XXOR2X1_26 micro_ucr_hash1.a[4][1] vdd gnd micro_ucr_hash1.b[4][5] gnd XOR2X1
XXOR2X1_27 micro_ucr_hash1.a[4][2] vdd gnd micro_ucr_hash1.b[4][6] gnd XOR2X1
XXOR2X1_28 micro_ucr_hash1.a[4][3] vdd gnd micro_ucr_hash1.b[4][7] gnd XOR2X1
XINVX2_18 vdd gnd _362_ bloque_bytes[56] INVX2
XXNOR2X1_20 gnd micro_ucr_hash1.a[3][0] gnd vdd _363_ XNOR2X1
XXNOR2X1_21 _363_ _362_ gnd vdd micro_ucr_hash1.b[5][4] XNOR2X1
XNAND2X1_53 vdd _364_ gnd _362_ _363_ NAND2X1
XOR2X2_16 _365_ micro_ucr_hash1.a[3][1] vdd gnd gnd OR2X2
XNAND2X1_54 vdd _366_ gnd gnd micro_ucr_hash1.a[3][1] NAND2X1
XNAND3X1_36 _366_ vdd gnd bloque_bytes[57] _365_ _367_ NAND3X1
XINVX1_31 bloque_bytes[57] _368_ vdd gnd INVX1
XNOR2X1_31 vdd micro_ucr_hash1.a[3][1] gnd _369_ gnd NOR2X1
XAND2X2_15 vdd gnd gnd micro_ucr_hash1.a[3][1] _370_ AND2X2
XOAI21X1_41 gnd vdd _370_ _369_ _371_ _368_ OAI21X1
XNAND2X1_55 vdd _372_ gnd _371_ _367_ NAND2X1
XXNOR2X1_22 _372_ _364_ gnd vdd micro_ucr_hash1.b[5][5] XNOR2X1
XNAND3X1_37 _371_ vdd gnd _367_ _364_ _373_ NAND3X1
XNOR3X1_7 vdd gnd _369_ _370_ _368_ _374_ NOR3X1
XINVX1_32 bloque_bytes[58] _375_ vdd gnd INVX1
XNOR2X1_32 vdd micro_ucr_hash1.a[3][2] gnd _376_ gnd NOR2X1
XAND2X2_16 vdd gnd gnd micro_ucr_hash1.a[3][2] _377_ AND2X2
XNOR3X1_8 vdd gnd _376_ _377_ _375_ _378_ NOR3X1
XOR2X2_17 _379_ micro_ucr_hash1.a[3][2] vdd gnd gnd OR2X2
XNAND2X1_56 vdd _380_ gnd gnd micro_ucr_hash1.a[3][2] NAND2X1
XAOI21X1_25 gnd vdd _380_ _379_ _381_ bloque_bytes[58] AOI21X1
XOAI21X1_42 gnd vdd _378_ _381_ _382_ _374_ OAI21X1
XNAND3X1_38 _380_ vdd gnd bloque_bytes[58] _379_ _383_ NAND3X1
XOAI21X1_43 gnd vdd _377_ _376_ _384_ _375_ OAI21X1
XNAND3X1_39 _367_ vdd gnd _384_ _383_ _385_ NAND3X1
XNAND2X1_57 vdd _386_ gnd _385_ _382_ NAND2X1
XXNOR2X1_23 _386_ _373_ gnd vdd micro_ucr_hash1.b[5][6] XNOR2X1
XNAND3X1_40 _384_ vdd gnd _383_ _374_ _387_ NAND3X1
XOAI21X1_44 gnd vdd _378_ _381_ _388_ _367_ OAI21X1
XNAND2X1_58 vdd _389_ gnd _387_ _388_ NAND2X1
XOAI21X1_45 gnd vdd _389_ _373_ _390_ _387_ OAI21X1
XINVX1_33 bloque_bytes[59] _391_ vdd gnd INVX1
XNOR2X1_33 vdd micro_ucr_hash1.a[3][3] gnd _392_ gnd NOR2X1
XAND2X2_17 vdd gnd gnd micro_ucr_hash1.a[3][3] _393_ AND2X2
XOAI21X1_46 gnd vdd _393_ _392_ _394_ _391_ OAI21X1
XOR2X2_18 _395_ micro_ucr_hash1.a[3][3] vdd gnd gnd OR2X2
XNAND2X1_59 vdd _396_ gnd gnd micro_ucr_hash1.a[3][3] NAND2X1
XNAND3X1_41 _396_ vdd gnd bloque_bytes[59] _395_ _397_ NAND3X1
XAOI21X1_26 gnd vdd _394_ _397_ _398_ _383_ AOI21X1
XNAND3X1_42 _396_ vdd gnd _391_ _395_ _399_ NAND3X1
XOAI21X1_47 gnd vdd _393_ _392_ _400_ bloque_bytes[59] OAI21X1
XAOI21X1_27 gnd vdd _400_ _399_ _401_ _378_ AOI21X1
XNOR2X1_34 vdd _401_ gnd _293_ _398_ NOR2X1
XXOR2X1_29 micro_ucr_hash1.b[5][7] vdd _293_ _390_ gnd XOR2X1
XINVX1_34 bloque_bytes[60] _294_ vdd gnd INVX1
XOR2X2_19 _295_ micro_ucr_hash1.a[3][4] vdd gnd micro_ucr_hash1.b[3][4] OR2X2
XNAND2X1_60 vdd _296_ gnd micro_ucr_hash1.b[3][4] micro_ucr_hash1.a[3][4] NAND2X1
XNAND3X1_43 _296_ vdd gnd _294_ _295_ _297_ NAND3X1
XNOR2X1_35 vdd micro_ucr_hash1.a[3][4] gnd _298_ micro_ucr_hash1.b[3][4] NOR2X1
XAND2X2_18 vdd gnd micro_ucr_hash1.b[3][4] micro_ucr_hash1.a[3][4] _299_ AND2X2
XOAI21X1_48 gnd vdd _299_ _298_ _300_ bloque_bytes[60] OAI21X1
XNAND3X1_44 _297_ vdd gnd _394_ _300_ _301_ NAND3X1
XAOI21X1_28 gnd vdd _396_ _395_ _302_ bloque_bytes[59] AOI21X1
XOAI21X1_49 gnd vdd _299_ _298_ _303_ _294_ OAI21X1
XNAND3X1_45 _296_ vdd gnd bloque_bytes[60] _295_ _304_ NAND3X1
XNAND3X1_46 _304_ vdd gnd _303_ _302_ _305_ NAND3X1
XAND2X2_19 vdd gnd _305_ _301_ _306_ AND2X2
XINVX2_19 vdd gnd _307_ _401_ INVX2
XNOR2X1_36 vdd _378_ gnd _308_ _381_ NOR2X1
XAOI21X1_29 gnd vdd _374_ _308_ _309_ _398_ AOI21X1
XOAI21X1_50 gnd vdd _389_ _373_ _310_ _309_ OAI21X1
XNAND2X1_61 vdd _311_ gnd _307_ _310_ NAND2X1
XXNOR2X1_24 _311_ _306_ gnd vdd micro_ucr_hash1.c[4][4] XNOR2X1
XNAND2X1_62 vdd _312_ gnd _301_ _305_ NAND2X1
XOAI21X1_51 gnd vdd _311_ _312_ _313_ _301_ OAI21X1
XINVX1_35 bloque_bytes[61] _314_ vdd gnd INVX1
XOR2X2_20 _315_ micro_ucr_hash1.a[3][5] vdd gnd micro_ucr_hash1.b[3][5] OR2X2
XNAND2X1_63 vdd _316_ gnd micro_ucr_hash1.b[3][5] micro_ucr_hash1.a[3][5] NAND2X1
XNAND3X1_47 _316_ vdd gnd _314_ _315_ _317_ NAND3X1
XNOR2X1_37 vdd micro_ucr_hash1.a[3][5] gnd _318_ micro_ucr_hash1.b[3][5] NOR2X1
XAND2X2_20 vdd gnd micro_ucr_hash1.b[3][5] micro_ucr_hash1.a[3][5] _319_ AND2X2
XOAI21X1_52 gnd vdd _319_ _318_ _320_ bloque_bytes[61] OAI21X1
XNAND3X1_48 _320_ vdd gnd _303_ _317_ _321_ NAND3X1
XAOI21X1_30 gnd vdd _296_ _295_ _322_ bloque_bytes[60] AOI21X1
XNAND3X1_49 _316_ vdd gnd bloque_bytes[61] _315_ _323_ NAND3X1
XOAI21X1_53 gnd vdd _319_ _318_ _324_ _314_ OAI21X1
XNAND3X1_50 _323_ vdd gnd _324_ _322_ _325_ NAND3X1
XNAND2X1_64 vdd _326_ gnd _321_ _325_ NAND2X1
XINVX2_20 vdd gnd _327_ _326_ INVX2
XXNOR2X1_25 _313_ _327_ gnd vdd micro_ucr_hash1.c[4][5] XNOR2X1
XAOI21X1_31 gnd vdd _321_ _325_ _328_ _312_ AOI21X1
XNAND3X1_51 _328_ vdd gnd _307_ _310_ _329_ NAND3X1
XNAND2X1_65 vdd _330_ gnd _324_ _323_ NAND2X1
XOR2X2_21 _331_ _322_ vdd gnd _330_ OR2X2
XINVX1_36 _331_ _332_ vdd gnd INVX1
XAOI21X1_32 gnd vdd _322_ _330_ _333_ _301_ AOI21X1
XNOR2X1_38 vdd _332_ gnd _334_ _333_ NOR2X1
XINVX1_37 bloque_bytes[62] _335_ vdd gnd INVX1
XXNOR2X1_26 micro_ucr_hash1.b[3][6] micro_ucr_hash1.a[3][6] gnd vdd _336_ XNOR2X1
XOR2X2_22 _337_ _335_ vdd gnd _336_ OR2X2
XNAND2X1_66 vdd _338_ gnd _335_ _336_ NAND2X1
XNAND2X1_67 vdd _339_ gnd _338_ _337_ NAND2X1
XOR2X2_23 _340_ _323_ vdd gnd _339_ OR2X2
XNAND2X1_68 vdd _341_ gnd _323_ _339_ NAND2X1
XNAND2X1_69 vdd _342_ gnd _341_ _340_ NAND2X1
XAOI21X1_33 gnd vdd _334_ _329_ _343_ _342_ AOI21X1
XNAND2X1_70 vdd _344_ gnd _326_ _306_ NAND2X1
XOAI21X1_54 gnd vdd _311_ _344_ _345_ _334_ OAI21X1
XINVX1_38 _342_ _346_ vdd gnd INVX1
XNOR2X1_39 vdd _345_ gnd _347_ _346_ NOR2X1
XNOR2X1_40 vdd _347_ gnd micro_ucr_hash1.c[4][6] _343_ NOR2X1
XINVX1_39 _387_ _348_ vdd gnd INVX1
XAOI21X1_34 gnd vdd _307_ _348_ _349_ _398_ AOI21X1
XAOI21X1_35 gnd vdd _362_ _363_ _350_ _372_ AOI21X1
XNAND3X1_52 _386_ vdd gnd _350_ _293_ _351_ NAND3X1
XAOI21X1_36 gnd vdd _349_ _351_ _352_ _344_ AOI21X1
XOAI21X1_55 gnd vdd _327_ _301_ _353_ _331_ OAI21X1
XOAI21X1_56 gnd vdd _352_ _353_ _354_ _346_ OAI21X1
XXOR2X1_30 _355_ vdd bloque_bytes[63] micro_ucr_hash1.b[3][7] gnd XOR2X1
XXNOR2X1_27 _355_ micro_ucr_hash1.a[3][7] gnd vdd _356_ XNOR2X1
XXNOR2X1_28 _356_ _337_ gnd vdd _357_ XNOR2X1
XNAND3X1_53 _357_ vdd gnd _340_ _354_ _358_ NAND3X1
XINVX1_40 _340_ _359_ vdd gnd INVX1
XINVX1_41 _357_ _360_ vdd gnd INVX1
XOAI21X1_57 gnd vdd _343_ _359_ _361_ _360_ OAI21X1
XNAND2X1_71 vdd micro_ucr_hash1.c[4][7] gnd _358_ _361_ NAND2X1
XXOR2X1_31 micro_ucr_hash1.a[5][0] vdd gnd micro_ucr_hash1.b[5][4] gnd XOR2X1
XXOR2X1_32 micro_ucr_hash1.a[5][1] vdd gnd micro_ucr_hash1.b[5][5] gnd XOR2X1
XXOR2X1_33 micro_ucr_hash1.a[5][2] vdd gnd micro_ucr_hash1.b[5][6] gnd XOR2X1
XXOR2X1_34 micro_ucr_hash1.a[5][3] vdd gnd micro_ucr_hash1.b[5][7] gnd XOR2X1
XXOR2X1_35 micro_ucr_hash1.a[5][4] vdd micro_ucr_hash1.b[4][4] micro_ucr_hash1.c[4][4] gnd XOR2X1
XXOR2X1_36 micro_ucr_hash1.a[5][5] vdd micro_ucr_hash1.b[4][5] micro_ucr_hash1.c[4][5] gnd XOR2X1
XXOR2X1_37 micro_ucr_hash1.a[5][6] vdd micro_ucr_hash1.b[4][6] micro_ucr_hash1.c[4][6] gnd XOR2X1
XXOR2X1_38 micro_ucr_hash1.a[5][7] vdd micro_ucr_hash1.b[4][7] micro_ucr_hash1.c[4][7] gnd XOR2X1
XINVX2_21 vdd gnd _403_ bloque_bytes[48] INVX2
XXNOR2X1_29 gnd micro_ucr_hash1.a[4][0] gnd vdd _404_ XNOR2X1
XXNOR2X1_30 _404_ _403_ gnd vdd micro_ucr_hash1.b[6][4] XNOR2X1
XNAND2X1_72 vdd _405_ gnd _403_ _404_ NAND2X1
XOR2X2_24 _406_ micro_ucr_hash1.a[4][1] vdd gnd gnd OR2X2
XNAND2X1_73 vdd _407_ gnd gnd micro_ucr_hash1.a[4][1] NAND2X1