* XSpice netlist created from SPICE and liberty sources by spi2xspice.py
*SPICE netlist created from BLIF module modulo_area by blif2BSpice
.subckt modulo_area a_vdd a_gnd a_inicio a_bloque_bytes_0_ a_bloque_bytes_1_ a_bloque_bytes_2_ a_bloque_bytes_3_ a_bloque_bytes_4_ a_bloque_bytes_5_ a_bloque_bytes_6_ a_bloque_bytes_7_ a_bloque_bytes_8_ a_bloque_bytes_9_ a_bloque_bytes_10_ a_bloque_bytes_11_ a_bloque_bytes_12_ a_bloque_bytes_13_ a_bloque_bytes_14_ a_bloque_bytes_15_ a_bloque_bytes_16_ a_bloque_bytes_17_ a_bloque_bytes_18_ a_bloque_bytes_19_ a_bloque_bytes_20_ a_bloque_bytes_21_ a_bloque_bytes_22_ a_bloque_bytes_23_ a_bloque_bytes_24_ a_bloque_bytes_25_ a_bloque_bytes_26_ a_bloque_bytes_27_ a_bloque_bytes_28_ a_bloque_bytes_29_ a_bloque_bytes_30_ a_bloque_bytes_31_ a_bloque_bytes_32_ a_bloque_bytes_33_ a_bloque_bytes_34_ a_bloque_bytes_35_ a_bloque_bytes_36_ a_bloque_bytes_37_ a_bloque_bytes_38_ a_bloque_bytes_39_ a_bloque_bytes_40_ a_bloque_bytes_41_ a_bloque_bytes_42_ a_bloque_bytes_43_ a_bloque_bytes_44_ a_bloque_bytes_45_ a_bloque_bytes_46_ a_bloque_bytes_47_ a_bloque_bytes_48_ a_bloque_bytes_49_ a_bloque_bytes_50_ a_bloque_bytes_51_ a_bloque_bytes_52_ a_bloque_bytes_53_ a_bloque_bytes_54_ a_bloque_bytes_55_ a_bloque_bytes_56_ a_bloque_bytes_57_ a_bloque_bytes_58_ a_bloque_bytes_59_ a_bloque_bytes_60_ a_bloque_bytes_61_ a_bloque_bytes_62_ a_bloque_bytes_63_ a_bloque_bytes_64_ a_bloque_bytes_65_ a_bloque_bytes_66_ a_bloque_bytes_67_ a_bloque_bytes_68_ a_bloque_bytes_69_ a_bloque_bytes_70_ a_bloque_bytes_71_ a_bloque_bytes_72_ a_bloque_bytes_73_ a_bloque_bytes_74_ a_bloque_bytes_75_ a_bloque_bytes_76_ a_bloque_bytes_77_ a_bloque_bytes_78_ a_bloque_bytes_79_ a_bloque_bytes_80_ a_bloque_bytes_81_ a_bloque_bytes_82_ a_bloque_bytes_83_ a_bloque_bytes_84_ a_bloque_bytes_85_ a_bloque_bytes_86_ a_bloque_bytes_87_ a_bloque_bytes_88_ a_bloque_bytes_89_ a_bloque_bytes_90_ a_bloque_bytes_91_ a_bloque_bytes_92_ a_bloque_bytes_93_ a_bloque_bytes_94_ a_bloque_bytes_95_ a_clk a_reset a_target_0_ a_target_1_ a_target_2_ a_target_3_ a_target_4_ a_target_5_ a_target_6_ a_target_7_ a_terminado a_hash_0_ a_hash_1_ a_hash_2_ a_hash_3_ a_hash_4_ a_hash_5_ a_hash_6_ a_hash_7_ a_hash_8_ a_hash_9_ a_hash_10_ a_hash_11_ a_hash_12_ a_hash_13_ a_hash_14_ a_hash_15_ a_hash_16_ a_hash_17_ a_hash_18_ a_hash_19_ a_hash_20_ a_hash_21_ a_hash_22_ a_hash_23_
ACLKBUF1_1 [clk] clk_bF$buf7 d_lut_CLKBUF1
ACLKBUF1_2 [clk] clk_bF$buf6 d_lut_CLKBUF1
ACLKBUF1_3 [clk] clk_bF$buf5 d_lut_CLKBUF1
ACLKBUF1_4 [clk] clk_bF$buf4 d_lut_CLKBUF1
ACLKBUF1_5 [clk] clk_bF$buf3 d_lut_CLKBUF1
ACLKBUF1_6 [clk] clk_bF$buf2 d_lut_CLKBUF1
ACLKBUF1_7 [clk] clk_bF$buf1 d_lut_CLKBUF1
ACLKBUF1_8 [clk] clk_bF$buf0 d_lut_CLKBUF1
ABUFX4_1 [_2200_] _2200__bF$buf4 d_lut_BUFX4
ABUFX4_2 [_2200_] _2200__bF$buf3 d_lut_BUFX4
ABUFX4_3 [_2200_] _2200__bF$buf2 d_lut_BUFX4
ABUFX4_4 [_2200_] _2200__bF$buf1 d_lut_BUFX4
ABUFX4_5 [_2200_] _2200__bF$buf0 d_lut_BUFX4
ABUFX4_6 [reset] reset_bF$buf5 d_lut_BUFX4
ABUFX4_7 [reset] reset_bF$buf4 d_lut_BUFX4
ABUFX4_8 [reset] reset_bF$buf3 d_lut_BUFX4
ABUFX4_9 [reset] reset_bF$buf2 d_lut_BUFX4
ABUFX4_10 [reset] reset_bF$buf1 d_lut_BUFX4
ABUFX4_11 [reset] reset_bF$buf0 d_lut_BUFX4
AINVX1_1 [_101_] _29_ d_lut_INVX1
AINVX1_2 [reset_bF$buf5] _30_ d_lut_INVX1
AINVX1_3 [target_7_] _31_ d_lut_INVX1
AINVX2_1 [micro_ucr_hash1.hash_22_] _32_ d_lut_INVX2
AOAI22X1_1 [_31_ micro_ucr_hash1.hash_23_ _32_ target_6_] _33_ d_lut_OAI22X1
AINVX2_2 [micro_ucr_hash1.hash_23_] _34_ d_lut_INVX2
AINVX2_3 [target_6_] _35_ d_lut_INVX2
AOAI22X1_2 [_34_ target_7_ micro_ucr_hash1.hash_22_ _35_] _36_ d_lut_OAI22X1
ANOR2X1_1 [_33_ _36_] _37_ d_lut_NOR2X1
AINVX1_4 [micro_ucr_hash1.hash_21_] _38_ d_lut_INVX1
AINVX1_5 [micro_ucr_hash1.hash_20_] _39_ d_lut_INVX1
AAOI22X1_1 [_38_ target_5_ _39_ target_4_] _40_ d_lut_AOI22X1
AINVX2_4 [target_5_] _41_ d_lut_INVX2
AINVX1_6 [target_4_] _42_ d_lut_INVX1
AAOI22X1_2 [_41_ micro_ucr_hash1.hash_21_ micro_ucr_hash1.hash_20_ _42_] _43_ d_lut_AOI22X1
ANAND3X1_1 [_40_ _43_ _37_] _44_ d_lut_NAND3X1
AINVX2_5 [target_3_] _45_ d_lut_INVX2
AINVX2_6 [micro_ucr_hash1.hash_18_] _46_ d_lut_INVX2
AOAI22X1_3 [_45_ micro_ucr_hash1.hash_19_ _46_ target_2_] _47_ d_lut_OAI22X1
AINVX2_7 [micro_ucr_hash1.hash_19_] _48_ d_lut_INVX2
AINVX2_8 [target_2_] _49_ d_lut_INVX2
AOAI22X1_4 [_48_ target_3_ micro_ucr_hash1.hash_18_ _49_] _50_ d_lut_OAI22X1
ANOR2X1_2 [_47_ _50_] _51_ d_lut_NOR2X1
AINVX2_9 [target_1_] _52_ d_lut_INVX2
AINVX1_7 [micro_ucr_hash1.hash_17_] _53_ d_lut_INVX1
AINVX1_8 [micro_ucr_hash1.hash_16_] _54_ d_lut_INVX1
AOAI22X1_5 [_53_ target_1_ _54_ target_0_] _55_ d_lut_OAI22X1
AOAI21X1_1 [micro_ucr_hash1.hash_17_ _52_ _55_] _56_ d_lut_OAI21X1
ANAND2X1_1 [target_3_ _48_] _57_ d_lut_NAND2X1
ANOR2X1_3 [target_3_ _48_] _58_ d_lut_NOR2X1
ANAND2X1_2 [target_2_ _46_] _59_ d_lut_NAND2X1
AOAI21X1_2 [_58_ _59_ _57_] _60_ d_lut_OAI21X1
AAOI21X1_1 [_56_ _51_ _60_] _61_ d_lut_AOI21X1
AAOI21X1_2 [micro_ucr_hash1.hash_21_ _41_ _40_] _62_ d_lut_AOI21X1
ANAND2X1_3 [target_7_ _34_] _63_ d_lut_NAND2X1
ANOR2X1_4 [target_7_ _34_] _64_ d_lut_NOR2X1
ANAND2X1_4 [target_6_ _32_] _65_ d_lut_NAND2X1
AOAI21X1_3 [_64_ _65_ _63_] _66_ d_lut_OAI21X1
AAOI21X1_3 [_62_ _37_ _66_] _67_ d_lut_AOI21X1
AOAI21X1_4 [_61_ _44_ _67_] _68_ d_lut_OAI21X1
AXNOR2X1_1 [target_7_ micro_ucr_hash1.hash_15_] _69_ d_lut_XNOR2X1
AXNOR2X1_2 [target_6_ micro_ucr_hash1.hash_14_] _70_ d_lut_XNOR2X1
AAND2X2_1 [_69_ _70_] _71_ d_lut_AND2X2
AINVX2_10 [micro_ucr_hash1.hash_13_] _72_ d_lut_INVX2
AINVX1_9 [micro_ucr_hash1.hash_12_] _73_ d_lut_INVX1
AAOI22X1_3 [_72_ target_5_ target_4_ _73_] _74_ d_lut_AOI22X1
AAOI22X1_4 [_41_ micro_ucr_hash1.hash_13_ _42_ micro_ucr_hash1.hash_12_] _75_ d_lut_AOI22X1
AAND2X2_2 [_74_ _75_] _76_ d_lut_AND2X2
ANAND2X1_5 [_76_ _71_] _77_ d_lut_NAND2X1
AOAI22X1_6 [_45_ micro_ucr_hash1.hash_11_ _49_ micro_ucr_hash1.hash_10_] _78_ d_lut_OAI22X1
AINVX2_11 [micro_ucr_hash1.hash_11_] _79_ d_lut_INVX2
AINVX2_12 [micro_ucr_hash1.hash_10_] _80_ d_lut_INVX2
AOAI22X1_7 [_79_ target_3_ target_2_ _80_] _81_ d_lut_OAI22X1
ANOR2X1_5 [_78_ _81_] _82_ d_lut_NOR2X1
AINVX1_10 [micro_ucr_hash1.hash_9_] _83_ d_lut_INVX1
AINVX1_11 [micro_ucr_hash1.hash_8_] _84_ d_lut_INVX1
AOAI22X1_8 [_83_ target_1_ target_0_ _84_] _85_ d_lut_OAI22X1
AOAI21X1_5 [_52_ micro_ucr_hash1.hash_9_ _85_] _86_ d_lut_OAI21X1
ANAND2X1_6 [target_3_ _79_] _87_ d_lut_NAND2X1
ANAND2X1_7 [target_2_ _80_] _88_ d_lut_NAND2X1
ANOR2X1_6 [target_3_ _79_] _89_ d_lut_NOR2X1
AOAI21X1_6 [_89_ _88_ _87_] _90_ d_lut_OAI21X1
AAOI21X1_4 [_86_ _82_ _90_] _91_ d_lut_AOI21X1
ANAND2X1_8 [target_5_ _72_] _92_ d_lut_NAND2X1
ANAND2X1_9 [target_4_ _73_] _93_ d_lut_NAND2X1
ANOR2X1_7 [target_5_ _72_] _94_ d_lut_NOR2X1
AOAI21X1_7 [_94_ _93_ _92_] _95_ d_lut_OAI21X1
AINVX1_12 [micro_ucr_hash1.hash_15_] _96_ d_lut_INVX1
ANAND2X1_10 [target_7_ _96_] _97_ d_lut_NAND2X1
ANOR2X1_8 [target_7_ _96_] _98_ d_lut_NOR2X1
AOR2X2_1 [_35_ micro_ucr_hash1.hash_14_] _99_ d_lut_OR2X2
AOAI21X1_8 [_99_ _98_ _97_] _100_ d_lut_OAI21X1
AAOI21X1_5 [_95_ _71_ _100_] _1_ d_lut_AOI21X1
AOAI21X1_9 [_91_ _77_ _1_] _2_ d_lut_OAI21X1
AAOI22X1_5 [_34_ target_7_ micro_ucr_hash1.hash_22_ _35_] _3_ d_lut_AOI22X1
AAOI22X1_6 [_31_ micro_ucr_hash1.hash_23_ _32_ target_6_] _4_ d_lut_AOI22X1
ANAND2X1_11 [_3_ _4_] _5_ d_lut_NAND2X1
ANAND2X1_12 [_40_ _43_] _6_ d_lut_NAND2X1
ANOR2X1_9 [_5_ _6_] _7_ d_lut_NOR2X1
ANAND2X1_13 [_69_ _70_] _8_ d_lut_NAND2X1
ANAND2X1_14 [_74_ _75_] _9_ d_lut_NAND2X1
ANOR2X1_10 [_9_ _8_] _10_ d_lut_NOR2X1
AAOI22X1_7 [_79_ target_3_ target_2_ _80_] _11_ d_lut_AOI22X1
AAOI22X1_8 [_45_ micro_ucr_hash1.hash_11_ _49_ micro_ucr_hash1.hash_10_] _12_ d_lut_AOI22X1
ANAND2X1_15 [_11_ _12_] _13_ d_lut_NAND2X1
ANAND2X1_16 [target_1_ _83_] _14_ d_lut_NAND2X1
AINVX1_13 [target_0_] _15_ d_lut_INVX1
AAOI22X1_9 [_52_ micro_ucr_hash1.hash_9_ _15_ micro_ucr_hash1.hash_8_] _16_ d_lut_AOI22X1
ANAND2X1_17 [target_0_ _84_] _17_ d_lut_NAND2X1
ANAND3X1_2 [_14_ _17_ _16_] _18_ d_lut_NAND3X1
ANOR2X1_11 [_13_ _18_] _19_ d_lut_NOR2X1
AAOI22X1_10 [_48_ target_3_ micro_ucr_hash1.hash_18_ _49_] _20_ d_lut_AOI22X1
AAOI22X1_11 [_45_ micro_ucr_hash1.hash_19_ _46_ target_2_] _21_ d_lut_AOI22X1
ANAND2X1_18 [_20_ _21_] _22_ d_lut_NAND2X1
AAOI22X1_12 [_52_ micro_ucr_hash1.hash_17_ micro_ucr_hash1.hash_16_ _15_] _23_ d_lut_AOI22X1
AAOI22X1_13 [_53_ target_1_ _54_ target_0_] _24_ d_lut_AOI22X1
ANAND2X1_19 [_23_ _24_] _25_ d_lut_NAND2X1
ANOR2X1_12 [_22_ _25_] _26_ d_lut_NOR2X1
AAOI22X1_14 [_7_ _26_ _19_ _10_] _27_ d_lut_AOI22X1
ANAND3X1_3 [_27_ _68_ _2_] _28_ d_lut_NAND3X1
AAOI21X1_6 [_29_ _28_ _30_] _0_ d_lut_AOI21X1
ABUFX2_1 [gnd] hash_0_ d_lut_BUFX2
ABUFX2_2 [gnd] hash_1_ d_lut_BUFX2
ABUFX2_3 [gnd] hash_2_ d_lut_BUFX2
ABUFX2_4 [gnd] hash_3_ d_lut_BUFX2
ABUFX2_5 [gnd] hash_4_ d_lut_BUFX2
ABUFX2_6 [gnd] hash_5_ d_lut_BUFX2
ABUFX2_7 [gnd] hash_6_ d_lut_BUFX2
ABUFX2_8 [gnd] hash_7_ d_lut_BUFX2
ABUFX2_9 [gnd] hash_8_ d_lut_BUFX2
ABUFX2_10 [gnd] hash_9_ d_lut_BUFX2
ABUFX2_11 [gnd] hash_10_ d_lut_BUFX2
ABUFX2_12 [gnd] hash_11_ d_lut_BUFX2
ABUFX2_13 [gnd] hash_12_ d_lut_BUFX2
ABUFX2_14 [gnd] hash_13_ d_lut_BUFX2
ABUFX2_15 [gnd] hash_14_ d_lut_BUFX2
ABUFX2_16 [gnd] hash_15_ d_lut_BUFX2
ABUFX2_17 [gnd] hash_16_ d_lut_BUFX2
ABUFX2_18 [gnd] hash_17_ d_lut_BUFX2
ABUFX2_19 [gnd] hash_18_ d_lut_BUFX2
ABUFX2_20 [gnd] hash_19_ d_lut_BUFX2
ABUFX2_21 [gnd] hash_20_ d_lut_BUFX2
ABUFX2_22 [gnd] hash_21_ d_lut_BUFX2
ABUFX2_23 [gnd] hash_22_ d_lut_BUFX2
ABUFX2_24 [gnd] hash_23_ d_lut_BUFX2
ABUFX2_25 [_101_] terminado d_lut_BUFX2
ADFFPOSX1_1 _0_ clk_bF$buf7 NULL NULL _101_ NULL ddflop
AXOR2X1_1 [micro_ucr_hash1.b_1__4_ gnd] micro_ucr_hash1.a_1__0_ d_lut_XOR2X1
AXOR2X1_2 [micro_ucr_hash1.b_1__5_ gnd] micro_ucr_hash1.a_1__1_ d_lut_XOR2X1
AXOR2X1_3 [micro_ucr_hash1.b_1__6_ gnd] micro_ucr_hash1.a_1__2_ d_lut_XOR2X1
AXOR2X1_4 [micro_ucr_hash1.b_1__7_ gnd] micro_ucr_hash1.a_1__3_ d_lut_XOR2X1
AXOR2X1_5 [micro_ucr_hash1.c_0__4_ gnd] micro_ucr_hash1.a_1__4_ d_lut_XOR2X1
AXOR2X1_6 [micro_ucr_hash1.c_0__5_ vdd] micro_ucr_hash1.a_1__5_ d_lut_XOR2X1
AXOR2X1_7 [micro_ucr_hash1.c_0__6_ vdd] micro_ucr_hash1.a_1__6_ d_lut_XOR2X1
AXOR2X1_8 [micro_ucr_hash1.c_0__7_ vdd] micro_ucr_hash1.a_1__7_ d_lut_XOR2X1
AINVX2_13 [bloque_bytes_80_] _103_ d_lut_INVX2
AXNOR2X1_3 [gnd micro_ucr_hash1.a_0__0_] _104_ d_lut_XNOR2X1
AXNOR2X1_4 [_104_ _103_] micro_ucr_hash1.b_2__4_ d_lut_XNOR2X1
ANAND2X1_20 [_103_ _104_] _105_ d_lut_NAND2X1
AOR2X2_2 [gnd micro_ucr_hash1.a_0__1_] _106_ d_lut_OR2X2
ANAND2X1_21 [gnd micro_ucr_hash1.a_0__1_] _107_ d_lut_NAND2X1
ANAND3X1_4 [bloque_bytes_81_ _107_ _106_] _108_ d_lut_NAND3X1
AINVX1_14 [bloque_bytes_81_] _109_ d_lut_INVX1
ANOR2X1_13 [gnd micro_ucr_hash1.a_0__1_] _110_ d_lut_NOR2X1
AAND2X2_3 [gnd micro_ucr_hash1.a_0__1_] _111_ d_lut_AND2X2
AOAI21X1_10 [_111_ _110_ _109_] _112_ d_lut_OAI21X1
ANAND2X1_22 [_112_ _108_] _113_ d_lut_NAND2X1
AXNOR2X1_5 [_113_ _105_] micro_ucr_hash1.b_2__5_ d_lut_XNOR2X1
ANAND3X1_5 [_108_ _112_ _105_] _114_ d_lut_NAND3X1
ANOR3X1_1 [_109_ _110_ _111_] _115_ d_lut_NOR3X1
AINVX1_15 [bloque_bytes_82_] _116_ d_lut_INVX1
ANOR2X1_14 [gnd micro_ucr_hash1.a_0__2_] _117_ d_lut_NOR2X1
AAND2X2_4 [gnd micro_ucr_hash1.a_0__2_] _118_ d_lut_AND2X2
ANOR3X1_2 [_116_ _117_ _118_] _119_ d_lut_NOR3X1
AOR2X2_3 [gnd micro_ucr_hash1.a_0__2_] _120_ d_lut_OR2X2
ANAND2X1_23 [gnd micro_ucr_hash1.a_0__2_] _121_ d_lut_NAND2X1
AAOI21X1_7 [_121_ _120_ bloque_bytes_82_] _122_ d_lut_AOI21X1
AOAI21X1_11 [_119_ _122_ _115_] _123_ d_lut_OAI21X1
ANAND3X1_6 [bloque_bytes_82_ _121_ _120_] _124_ d_lut_NAND3X1
AOAI21X1_12 [_118_ _117_ _116_] _125_ d_lut_OAI21X1
ANAND3X1_7 [_125_ _108_ _124_] _126_ d_lut_NAND3X1
ANAND2X1_24 [_126_ _123_] _127_ d_lut_NAND2X1
AXNOR2X1_6 [_127_ _114_] micro_ucr_hash1.b_2__6_ d_lut_XNOR2X1
ANAND3X1_8 [_124_ _125_ _115_] _128_ d_lut_NAND3X1
AOAI21X1_13 [_119_ _122_ _108_] _129_ d_lut_OAI21X1
ANAND2X1_25 [_128_ _129_] _130_ d_lut_NAND2X1
AOAI21X1_14 [_130_ _114_ _128_] _131_ d_lut_OAI21X1
AINVX1_16 [bloque_bytes_83_] _132_ d_lut_INVX1
ANOR2X1_15 [gnd micro_ucr_hash1.a_0__3_] _133_ d_lut_NOR2X1
AAND2X2_5 [gnd micro_ucr_hash1.a_0__3_] _134_ d_lut_AND2X2
AOAI21X1_15 [_134_ _133_ _132_] _135_ d_lut_OAI21X1
AOR2X2_4 [gnd micro_ucr_hash1.a_0__3_] _136_ d_lut_OR2X2
ANAND2X1_26 [gnd micro_ucr_hash1.a_0__3_] _137_ d_lut_NAND2X1
ANAND3X1_9 [bloque_bytes_83_ _137_ _136_] _138_ d_lut_NAND3X1
AAOI21X1_8 [_135_ _138_ _124_] _139_ d_lut_AOI21X1
ANAND3X1_10 [_132_ _137_ _136_] _140_ d_lut_NAND3X1
AOAI21X1_16 [_134_ _133_ bloque_bytes_83_] _141_ d_lut_OAI21X1
AAOI21X1_9 [_141_ _140_ _119_] _142_ d_lut_AOI21X1
ANOR2X1_16 [_139_ _142_] _102_ d_lut_NOR2X1
AXOR2X1_9 [_131_ _102_] micro_ucr_hash1.b_2__7_ d_lut_XOR2X1
AXOR2X1_10 [micro_ucr_hash1.b_2__4_ gnd] micro_ucr_hash1.a_2__0_ d_lut_XOR2X1
AXOR2X1_11 [micro_ucr_hash1.b_2__5_ gnd] micro_ucr_hash1.a_2__1_ d_lut_XOR2X1
AXOR2X1_12 [micro_ucr_hash1.b_2__6_ gnd] micro_ucr_hash1.a_2__2_ d_lut_XOR2X1
AXOR2X1_13 [micro_ucr_hash1.b_2__7_ gnd] micro_ucr_hash1.a_2__3_ d_lut_XOR2X1
AINVX2_14 [bloque_bytes_72_] _212_ d_lut_INVX2
AXNOR2X1_7 [gnd micro_ucr_hash1.a_1__0_] _213_ d_lut_XNOR2X1
AXNOR2X1_8 [_213_ _212_] micro_ucr_hash1.b_3__4_ d_lut_XNOR2X1
ANAND2X1_27 [_212_ _213_] _214_ d_lut_NAND2X1
AOR2X2_5 [gnd micro_ucr_hash1.a_1__1_] _215_ d_lut_OR2X2
ANAND2X1_28 [gnd micro_ucr_hash1.a_1__1_] _216_ d_lut_NAND2X1
ANAND3X1_11 [bloque_bytes_73_ _216_ _215_] _217_ d_lut_NAND3X1
AINVX1_17 [bloque_bytes_73_] _218_ d_lut_INVX1
ANOR2X1_17 [gnd micro_ucr_hash1.a_1__1_] _219_ d_lut_NOR2X1
AAND2X2_6 [gnd micro_ucr_hash1.a_1__1_] _220_ d_lut_AND2X2
AOAI21X1_17 [_220_ _219_ _218_] _221_ d_lut_OAI21X1
ANAND2X1_29 [_221_ _217_] _222_ d_lut_NAND2X1
AXNOR2X1_9 [_222_ _214_] micro_ucr_hash1.b_3__5_ d_lut_XNOR2X1
ANAND3X1_12 [_217_ _221_ _214_] _223_ d_lut_NAND3X1
ANOR3X1_3 [_218_ _219_ _220_] _224_ d_lut_NOR3X1
AINVX1_18 [bloque_bytes_74_] _225_ d_lut_INVX1
ANOR2X1_18 [gnd micro_ucr_hash1.a_1__2_] _226_ d_lut_NOR2X1
AAND2X2_7 [gnd micro_ucr_hash1.a_1__2_] _227_ d_lut_AND2X2
ANOR3X1_4 [_225_ _226_ _227_] _228_ d_lut_NOR3X1
AOR2X2_6 [gnd micro_ucr_hash1.a_1__2_] _229_ d_lut_OR2X2
ANAND2X1_30 [gnd micro_ucr_hash1.a_1__2_] _230_ d_lut_NAND2X1
AAOI21X1_10 [_230_ _229_ bloque_bytes_74_] _231_ d_lut_AOI21X1
AOAI21X1_18 [_228_ _231_ _224_] _232_ d_lut_OAI21X1
ANAND3X1_13 [bloque_bytes_74_ _230_ _229_] _233_ d_lut_NAND3X1
AOAI21X1_19 [_227_ _226_ _225_] _234_ d_lut_OAI21X1
ANAND3X1_14 [_234_ _217_ _233_] _235_ d_lut_NAND3X1
ANAND2X1_31 [_235_ _232_] _236_ d_lut_NAND2X1
AXNOR2X1_10 [_236_ _223_] micro_ucr_hash1.b_3__6_ d_lut_XNOR2X1
ANAND3X1_15 [_233_ _234_ _224_] _237_ d_lut_NAND3X1
AOAI21X1_20 [_228_ _231_ _217_] _238_ d_lut_OAI21X1
ANAND2X1_32 [_237_ _238_] _239_ d_lut_NAND2X1
AOAI21X1_21 [_239_ _223_ _237_] _240_ d_lut_OAI21X1
AINVX1_19 [bloque_bytes_75_] _241_ d_lut_INVX1
ANOR2X1_19 [gnd micro_ucr_hash1.a_1__3_] _242_ d_lut_NOR2X1
AAND2X2_8 [gnd micro_ucr_hash1.a_1__3_] _243_ d_lut_AND2X2
AOAI21X1_22 [_243_ _242_ _241_] _244_ d_lut_OAI21X1
AOR2X2_7 [gnd micro_ucr_hash1.a_1__3_] _245_ d_lut_OR2X2
ANAND2X1_33 [gnd micro_ucr_hash1.a_1__3_] _246_ d_lut_NAND2X1
ANAND3X1_16 [bloque_bytes_75_ _246_ _245_] _247_ d_lut_NAND3X1
AAOI21X1_11 [_244_ _247_ _233_] _248_ d_lut_AOI21X1
ANAND3X1_17 [_241_ _246_ _245_] _249_ d_lut_NAND3X1
AOAI21X1_23 [_243_ _242_ bloque_bytes_75_] _250_ d_lut_OAI21X1
AAOI21X1_12 [_250_ _249_ _228_] _251_ d_lut_AOI21X1
ANOR2X1_20 [_248_ _251_] _143_ d_lut_NOR2X1
AXOR2X1_14 [_240_ _143_] micro_ucr_hash1.b_3__7_ d_lut_XOR2X1
AINVX1_20 [bloque_bytes_76_] _144_ d_lut_INVX1
AOR2X2_8 [micro_ucr_hash1.b_1__4_ micro_ucr_hash1.a_1__4_] _145_ d_lut_OR2X2
ANAND2X1_34 [micro_ucr_hash1.b_1__4_ micro_ucr_hash1.a_1__4_] _146_ d_lut_NAND2X1
ANAND3X1_18 [_144_ _146_ _145_] _147_ d_lut_NAND3X1
ANOR2X1_21 [micro_ucr_hash1.b_1__4_ micro_ucr_hash1.a_1__4_] _148_ d_lut_NOR2X1
AAND2X2_9 [micro_ucr_hash1.b_1__4_ micro_ucr_hash1.a_1__4_] _149_ d_lut_AND2X2
AOAI21X1_24 [_149_ _148_ bloque_bytes_76_] _150_ d_lut_OAI21X1
ANAND3X1_19 [_244_ _147_ _150_] _151_ d_lut_NAND3X1
AAOI21X1_13 [_246_ _245_ bloque_bytes_75_] _152_ d_lut_AOI21X1
AOAI21X1_25 [_149_ _148_ _144_] _153_ d_lut_OAI21X1
ANAND3X1_20 [bloque_bytes_76_ _146_ _145_] _154_ d_lut_NAND3X1
ANAND3X1_21 [_153_ _154_ _152_] _155_ d_lut_NAND3X1
AAND2X2_10 [_155_ _151_] _156_ d_lut_AND2X2
AINVX2_15 [_251_] _157_ d_lut_INVX2
ANOR2X1_22 [_231_ _228_] _158_ d_lut_NOR2X1
AAOI21X1_14 [_224_ _158_ _248_] _159_ d_lut_AOI21X1
AOAI21X1_26 [_239_ _223_ _159_] _160_ d_lut_OAI21X1
ANAND2X1_35 [_157_ _160_] _161_ d_lut_NAND2X1
AXNOR2X1_11 [_161_ _156_] micro_ucr_hash1.c_2__4_ d_lut_XNOR2X1
ANAND2X1_36 [_151_ _155_] _162_ d_lut_NAND2X1
AOAI21X1_27 [_161_ _162_ _151_] _163_ d_lut_OAI21X1
AINVX1_21 [bloque_bytes_77_] _164_ d_lut_INVX1
AOR2X2_9 [micro_ucr_hash1.b_1__5_ micro_ucr_hash1.a_1__5_] _165_ d_lut_OR2X2
ANAND2X1_37 [micro_ucr_hash1.b_1__5_ micro_ucr_hash1.a_1__5_] _166_ d_lut_NAND2X1
ANAND3X1_22 [_164_ _166_ _165_] _167_ d_lut_NAND3X1
ANOR2X1_23 [micro_ucr_hash1.b_1__5_ micro_ucr_hash1.a_1__5_] _168_ d_lut_NOR2X1
AAND2X2_11 [micro_ucr_hash1.b_1__5_ micro_ucr_hash1.a_1__5_] _169_ d_lut_AND2X2
AOAI21X1_28 [_169_ _168_ bloque_bytes_77_] _170_ d_lut_OAI21X1
ANAND3X1_23 [_153_ _170_ _167_] _171_ d_lut_NAND3X1
AAOI21X1_15 [_146_ _145_ bloque_bytes_76_] _172_ d_lut_AOI21X1
ANAND3X1_24 [bloque_bytes_77_ _166_ _165_] _173_ d_lut_NAND3X1
AOAI21X1_29 [_169_ _168_ _164_] _174_ d_lut_OAI21X1
ANAND3X1_25 [_174_ _173_ _172_] _175_ d_lut_NAND3X1
ANAND2X1_38 [_171_ _175_] _176_ d_lut_NAND2X1
AINVX2_16 [_176_] _177_ d_lut_INVX2
AXNOR2X1_12 [_163_ _177_] micro_ucr_hash1.c_2__5_ d_lut_XNOR2X1
AAOI21X1_16 [_171_ _175_ _162_] _178_ d_lut_AOI21X1
ANAND3X1_26 [_157_ _178_ _160_] _179_ d_lut_NAND3X1
ANAND2X1_39 [_174_ _173_] _180_ d_lut_NAND2X1
AOR2X2_10 [_180_ _172_] _181_ d_lut_OR2X2
AINVX1_22 [_181_] _182_ d_lut_INVX1
AAOI21X1_17 [_172_ _180_ _151_] _183_ d_lut_AOI21X1
ANOR2X1_24 [_183_ _182_] _184_ d_lut_NOR2X1
AINVX1_23 [bloque_bytes_78_] _185_ d_lut_INVX1
AXNOR2X1_13 [micro_ucr_hash1.b_1__6_ micro_ucr_hash1.a_1__6_] _186_ d_lut_XNOR2X1
AOR2X2_11 [_186_ _185_] _187_ d_lut_OR2X2
ANAND2X1_40 [_185_ _186_] _188_ d_lut_NAND2X1
ANAND2X1_41 [_188_ _187_] _189_ d_lut_NAND2X1
AOR2X2_12 [_189_ _173_] _190_ d_lut_OR2X2
ANAND2X1_42 [_173_ _189_] _191_ d_lut_NAND2X1
ANAND2X1_43 [_191_ _190_] _192_ d_lut_NAND2X1
AAOI21X1_18 [_184_ _179_ _192_] _193_ d_lut_AOI21X1
ANAND2X1_44 [_176_ _156_] _194_ d_lut_NAND2X1
AOAI21X1_30 [_161_ _194_ _184_] _195_ d_lut_OAI21X1
AINVX1_24 [_192_] _196_ d_lut_INVX1
ANOR2X1_25 [_196_ _195_] _197_ d_lut_NOR2X1
ANOR2X1_26 [_193_ _197_] micro_ucr_hash1.c_2__6_ d_lut_NOR2X1
AINVX1_25 [_237_] _198_ d_lut_INVX1
AAOI21X1_19 [_157_ _198_ _248_] _199_ d_lut_AOI21X1
AAOI21X1_20 [_212_ _213_ _222_] _200_ d_lut_AOI21X1
ANAND3X1_27 [_200_ _236_ _143_] _201_ d_lut_NAND3X1
AAOI21X1_21 [_199_ _201_ _194_] _202_ d_lut_AOI21X1
AOAI21X1_31 [_177_ _151_ _181_] _203_ d_lut_OAI21X1
AOAI21X1_32 [_202_ _203_ _196_] _204_ d_lut_OAI21X1
AXOR2X1_15 [micro_ucr_hash1.b_1__7_ bloque_bytes_79_] _205_ d_lut_XOR2X1
AXNOR2X1_14 [_205_ micro_ucr_hash1.a_1__7_] _206_ d_lut_XNOR2X1
AXNOR2X1_15 [_206_ _187_] _207_ d_lut_XNOR2X1
ANAND3X1_28 [_190_ _207_ _204_] _208_ d_lut_NAND3X1
AINVX1_26 [_190_] _209_ d_lut_INVX1
AINVX1_27 [_207_] _210_ d_lut_INVX1
AOAI21X1_33 [_193_ _209_ _210_] _211_ d_lut_OAI21X1
ANAND2X1_45 [_208_ _211_] micro_ucr_hash1.c_2__7_ d_lut_NAND2X1
AXOR2X1_16 [micro_ucr_hash1.b_3__4_ gnd] micro_ucr_hash1.a_3__0_ d_lut_XOR2X1
AXOR2X1_17 [micro_ucr_hash1.b_3__5_ gnd] micro_ucr_hash1.a_3__1_ d_lut_XOR2X1
AXOR2X1_18 [micro_ucr_hash1.b_3__6_ gnd] micro_ucr_hash1.a_3__2_ d_lut_XOR2X1
AXOR2X1_19 [micro_ucr_hash1.b_3__7_ gnd] micro_ucr_hash1.a_3__3_ d_lut_XOR2X1
AXOR2X1_20 [micro_ucr_hash1.c_2__4_ micro_ucr_hash1.b_2__4_] micro_ucr_hash1.a_3__4_ d_lut_XOR2X1
AXOR2X1_21 [micro_ucr_hash1.c_2__5_ micro_ucr_hash1.b_2__5_] micro_ucr_hash1.a_3__5_ d_lut_XOR2X1
AXOR2X1_22 [micro_ucr_hash1.c_2__6_ micro_ucr_hash1.b_2__6_] micro_ucr_hash1.a_3__6_ d_lut_XOR2X1
AXOR2X1_23 [micro_ucr_hash1.c_2__7_ micro_ucr_hash1.b_2__7_] micro_ucr_hash1.a_3__7_ d_lut_XOR2X1
AINVX2_17 [bloque_bytes_64_] _253_ d_lut_INVX2
AXNOR2X1_16 [gnd micro_ucr_hash1.a_2__0_] _254_ d_lut_XNOR2X1
AXNOR2X1_17 [_254_ _253_] micro_ucr_hash1.b_4__4_ d_lut_XNOR2X1
ANAND2X1_46 [_253_ _254_] _255_ d_lut_NAND2X1
AOR2X2_13 [gnd micro_ucr_hash1.a_2__1_] _256_ d_lut_OR2X2
ANAND2X1_47 [gnd micro_ucr_hash1.a_2__1_] _257_ d_lut_NAND2X1
ANAND3X1_29 [bloque_bytes_65_ _257_ _256_] _258_ d_lut_NAND3X1
AINVX1_28 [bloque_bytes_65_] _259_ d_lut_INVX1
ANOR2X1_27 [gnd micro_ucr_hash1.a_2__1_] _260_ d_lut_NOR2X1
AAND2X2_12 [gnd micro_ucr_hash1.a_2__1_] _261_ d_lut_AND2X2
AOAI21X1_34 [_261_ _260_ _259_] _262_ d_lut_OAI21X1
ANAND2X1_48 [_262_ _258_] _263_ d_lut_NAND2X1
AXNOR2X1_18 [_263_ _255_] micro_ucr_hash1.b_4__5_ d_lut_XNOR2X1
ANAND3X1_30 [_258_ _262_ _255_] _264_ d_lut_NAND3X1
ANOR3X1_5 [_259_ _260_ _261_] _265_ d_lut_NOR3X1
AINVX1_29 [bloque_bytes_66_] _266_ d_lut_INVX1
ANOR2X1_28 [gnd micro_ucr_hash1.a_2__2_] _267_ d_lut_NOR2X1
AAND2X2_13 [gnd micro_ucr_hash1.a_2__2_] _268_ d_lut_AND2X2
ANOR3X1_6 [_266_ _267_ _268_] _269_ d_lut_NOR3X1
AOR2X2_14 [gnd micro_ucr_hash1.a_2__2_] _270_ d_lut_OR2X2
ANAND2X1_49 [gnd micro_ucr_hash1.a_2__2_] _271_ d_lut_NAND2X1
AAOI21X1_22 [_271_ _270_ bloque_bytes_66_] _272_ d_lut_AOI21X1
AOAI21X1_35 [_269_ _272_ _265_] _273_ d_lut_OAI21X1
ANAND3X1_31 [bloque_bytes_66_ _271_ _270_] _274_ d_lut_NAND3X1
AOAI21X1_36 [_268_ _267_ _266_] _275_ d_lut_OAI21X1
ANAND3X1_32 [_275_ _258_ _274_] _276_ d_lut_NAND3X1
ANAND2X1_50 [_276_ _273_] _277_ d_lut_NAND2X1
AXNOR2X1_19 [_277_ _264_] micro_ucr_hash1.b_4__6_ d_lut_XNOR2X1
ANAND3X1_33 [_274_ _275_ _265_] _278_ d_lut_NAND3X1
AOAI21X1_37 [_269_ _272_ _258_] _279_ d_lut_OAI21X1
ANAND2X1_51 [_278_ _279_] _280_ d_lut_NAND2X1
AOAI21X1_38 [_280_ _264_ _278_] _281_ d_lut_OAI21X1
AINVX1_30 [bloque_bytes_67_] _282_ d_lut_INVX1
ANOR2X1_29 [gnd micro_ucr_hash1.a_2__3_] _283_ d_lut_NOR2X1
AAND2X2_14 [gnd micro_ucr_hash1.a_2__3_] _284_ d_lut_AND2X2
AOAI21X1_39 [_284_ _283_ _282_] _285_ d_lut_OAI21X1
AOR2X2_15 [gnd micro_ucr_hash1.a_2__3_] _286_ d_lut_OR2X2
ANAND2X1_52 [gnd micro_ucr_hash1.a_2__3_] _287_ d_lut_NAND2X1
ANAND3X1_34 [bloque_bytes_67_ _287_ _286_] _288_ d_lut_NAND3X1
AAOI21X1_23 [_285_ _288_ _274_] _289_ d_lut_AOI21X1
ANAND3X1_35 [_282_ _287_ _286_] _290_ d_lut_NAND3X1
AOAI21X1_40 [_284_ _283_ bloque_bytes_67_] _291_ d_lut_OAI21X1
AAOI21X1_24 [_291_ _290_ _269_] _292_ d_lut_AOI21X1
ANOR2X1_30 [_289_ _292_] _252_ d_lut_NOR2X1
AXOR2X1_24 [_281_ _252_] micro_ucr_hash1.b_4__7_ d_lut_XOR2X1
AXOR2X1_25 [micro_ucr_hash1.b_4__4_ gnd] micro_ucr_hash1.a_4__0_ d_lut_XOR2X1
AXOR2X1_26 [micro_ucr_hash1.b_4__5_ gnd] micro_ucr_hash1.a_4__1_ d_lut_XOR2X1
AXOR2X1_27 [micro_ucr_hash1.b_4__6_ gnd] micro_ucr_hash1.a_4__2_ d_lut_XOR2X1
AXOR2X1_28 [micro_ucr_hash1.b_4__7_ gnd] micro_ucr_hash1.a_4__3_ d_lut_XOR2X1
AINVX2_18 [bloque_bytes_56_] _362_ d_lut_INVX2
AXNOR2X1_20 [gnd micro_ucr_hash1.a_3__0_] _363_ d_lut_XNOR2X1
AXNOR2X1_21 [_363_ _362_] micro_ucr_hash1.b_5__4_ d_lut_XNOR2X1
ANAND2X1_53 [_362_ _363_] _364_ d_lut_NAND2X1
AOR2X2_16 [gnd micro_ucr_hash1.a_3__1_] _365_ d_lut_OR2X2
ANAND2X1_54 [gnd micro_ucr_hash1.a_3__1_] _366_ d_lut_NAND2X1
ANAND3X1_36 [bloque_bytes_57_ _366_ _365_] _367_ d_lut_NAND3X1
AINVX1_31 [bloque_bytes_57_] _368_ d_lut_INVX1
ANOR2X1_31 [gnd micro_ucr_hash1.a_3__1_] _369_ d_lut_NOR2X1
AAND2X2_15 [gnd micro_ucr_hash1.a_3__1_] _370_ d_lut_AND2X2
AOAI21X1_41 [_370_ _369_ _368_] _371_ d_lut_OAI21X1
ANAND2X1_55 [_371_ _367_] _372_ d_lut_NAND2X1
AXNOR2X1_22 [_372_ _364_] micro_ucr_hash1.b_5__5_ d_lut_XNOR2X1
ANAND3X1_37 [_367_ _371_ _364_] _373_ d_lut_NAND3X1
ANOR3X1_7 [_368_ _369_ _370_] _374_ d_lut_NOR3X1
AINVX1_32 [bloque_bytes_58_] _375_ d_lut_INVX1
ANOR2X1_32 [gnd micro_ucr_hash1.a_3__2_] _376_ d_lut_NOR2X1
AAND2X2_16 [gnd micro_ucr_hash1.a_3__2_] _377_ d_lut_AND2X2
ANOR3X1_8 [_375_ _376_ _377_] _378_ d_lut_NOR3X1
AOR2X2_17 [gnd micro_ucr_hash1.a_3__2_] _379_ d_lut_OR2X2
ANAND2X1_56 [gnd micro_ucr_hash1.a_3__2_] _380_ d_lut_NAND2X1
AAOI21X1_25 [_380_ _379_ bloque_bytes_58_] _381_ d_lut_AOI21X1
AOAI21X1_42 [_378_ _381_ _374_] _382_ d_lut_OAI21X1
ANAND3X1_38 [bloque_bytes_58_ _380_ _379_] _383_ d_lut_NAND3X1
AOAI21X1_43 [_377_ _376_ _375_] _384_ d_lut_OAI21X1
ANAND3X1_39 [_384_ _367_ _383_] _385_ d_lut_NAND3X1
ANAND2X1_57 [_385_ _382_] _386_ d_lut_NAND2X1
AXNOR2X1_23 [_386_ _373_] micro_ucr_hash1.b_5__6_ d_lut_XNOR2X1
ANAND3X1_40 [_383_ _384_ _374_] _387_ d_lut_NAND3X1
AOAI21X1_44 [_378_ _381_ _367_] _388_ d_lut_OAI21X1
ANAND2X1_58 [_387_ _388_] _389_ d_lut_NAND2X1
AOAI21X1_45 [_389_ _373_ _387_] _390_ d_lut_OAI21X1
AINVX1_33 [bloque_bytes_59_] _391_ d_lut_INVX1
ANOR2X1_33 [gnd micro_ucr_hash1.a_3__3_] _392_ d_lut_NOR2X1
AAND2X2_17 [gnd micro_ucr_hash1.a_3__3_] _393_ d_lut_AND2X2
AOAI21X1_46 [_393_ _392_ _391_] _394_ d_lut_OAI21X1
AOR2X2_18 [gnd micro_ucr_hash1.a_3__3_] _395_ d_lut_OR2X2
ANAND2X1_59 [gnd micro_ucr_hash1.a_3__3_] _396_ d_lut_NAND2X1
ANAND3X1_41 [bloque_bytes_59_ _396_ _395_] _397_ d_lut_NAND3X1
AAOI21X1_26 [_394_ _397_ _383_] _398_ d_lut_AOI21X1
ANAND3X1_42 [_391_ _396_ _395_] _399_ d_lut_NAND3X1
AOAI21X1_47 [_393_ _392_ bloque_bytes_59_] _400_ d_lut_OAI21X1
AAOI21X1_27 [_400_ _399_ _378_] _401_ d_lut_AOI21X1
ANOR2X1_34 [_398_ _401_] _293_ d_lut_NOR2X1
AXOR2X1_29 [_390_ _293_] micro_ucr_hash1.b_5__7_ d_lut_XOR2X1
AINVX1_34 [bloque_bytes_60_] _294_ d_lut_INVX1
AOR2X2_19 [micro_ucr_hash1.b_3__4_ micro_ucr_hash1.a_3__4_] _295_ d_lut_OR2X2
ANAND2X1_60 [micro_ucr_hash1.b_3__4_ micro_ucr_hash1.a_3__4_] _296_ d_lut_NAND2X1
ANAND3X1_43 [_294_ _296_ _295_] _297_ d_lut_NAND3X1
ANOR2X1_35 [micro_ucr_hash1.b_3__4_ micro_ucr_hash1.a_3__4_] _298_ d_lut_NOR2X1
AAND2X2_18 [micro_ucr_hash1.b_3__4_ micro_ucr_hash1.a_3__4_] _299_ d_lut_AND2X2
AOAI21X1_48 [_299_ _298_ bloque_bytes_60_] _300_ d_lut_OAI21X1
ANAND3X1_44 [_394_ _297_ _300_] _301_ d_lut_NAND3X1
AAOI21X1_28 [_396_ _395_ bloque_bytes_59_] _302_ d_lut_AOI21X1
AOAI21X1_49 [_299_ _298_ _294_] _303_ d_lut_OAI21X1
ANAND3X1_45 [bloque_bytes_60_ _296_ _295_] _304_ d_lut_NAND3X1
ANAND3X1_46 [_303_ _304_ _302_] _305_ d_lut_NAND3X1
AAND2X2_19 [_305_ _301_] _306_ d_lut_AND2X2
AINVX2_19 [_401_] _307_ d_lut_INVX2
ANOR2X1_36 [_381_ _378_] _308_ d_lut_NOR2X1
AAOI21X1_29 [_374_ _308_ _398_] _309_ d_lut_AOI21X1
AOAI21X1_50 [_389_ _373_ _309_] _310_ d_lut_OAI21X1
ANAND2X1_61 [_307_ _310_] _311_ d_lut_NAND2X1
AXNOR2X1_24 [_311_ _306_] micro_ucr_hash1.c_4__4_ d_lut_XNOR2X1
ANAND2X1_62 [_301_ _305_] _312_ d_lut_NAND2X1
AOAI21X1_51 [_311_ _312_ _301_] _313_ d_lut_OAI21X1
AINVX1_35 [bloque_bytes_61_] _314_ d_lut_INVX1
AOR2X2_20 [micro_ucr_hash1.b_3__5_ micro_ucr_hash1.a_3__5_] _315_ d_lut_OR2X2
ANAND2X1_63 [micro_ucr_hash1.b_3__5_ micro_ucr_hash1.a_3__5_] _316_ d_lut_NAND2X1
ANAND3X1_47 [_314_ _316_ _315_] _317_ d_lut_NAND3X1
ANOR2X1_37 [micro_ucr_hash1.b_3__5_ micro_ucr_hash1.a_3__5_] _318_ d_lut_NOR2X1
AAND2X2_20 [micro_ucr_hash1.b_3__5_ micro_ucr_hash1.a_3__5_] _319_ d_lut_AND2X2
AOAI21X1_52 [_319_ _318_ bloque_bytes_61_] _320_ d_lut_OAI21X1
ANAND3X1_48 [_303_ _320_ _317_] _321_ d_lut_NAND3X1
AAOI21X1_30 [_296_ _295_ bloque_bytes_60_] _322_ d_lut_AOI21X1
ANAND3X1_49 [bloque_bytes_61_ _316_ _315_] _323_ d_lut_NAND3X1
AOAI21X1_53 [_319_ _318_ _314_] _324_ d_lut_OAI21X1
ANAND3X1_50 [_324_ _323_ _322_] _325_ d_lut_NAND3X1
ANAND2X1_64 [_321_ _325_] _326_ d_lut_NAND2X1
AINVX2_20 [_326_] _327_ d_lut_INVX2
AXNOR2X1_25 [_313_ _327_] micro_ucr_hash1.c_4__5_ d_lut_XNOR2X1
AAOI21X1_31 [_321_ _325_ _312_] _328_ d_lut_AOI21X1
ANAND3X1_51 [_307_ _328_ _310_] _329_ d_lut_NAND3X1
ANAND2X1_65 [_324_ _323_] _330_ d_lut_NAND2X1
AOR2X2_21 [_330_ _322_] _331_ d_lut_OR2X2
AINVX1_36 [_331_] _332_ d_lut_INVX1
AAOI21X1_32 [_322_ _330_ _301_] _333_ d_lut_AOI21X1
ANOR2X1_38 [_333_ _332_] _334_ d_lut_NOR2X1
AINVX1_37 [bloque_bytes_62_] _335_ d_lut_INVX1
AXNOR2X1_26 [micro_ucr_hash1.b_3__6_ micro_ucr_hash1.a_3__6_] _336_ d_lut_XNOR2X1
AOR2X2_22 [_336_ _335_] _337_ d_lut_OR2X2
ANAND2X1_66 [_335_ _336_] _338_ d_lut_NAND2X1
ANAND2X1_67 [_338_ _337_] _339_ d_lut_NAND2X1
AOR2X2_23 [_339_ _323_] _340_ d_lut_OR2X2
ANAND2X1_68 [_323_ _339_] _341_ d_lut_NAND2X1
ANAND2X1_69 [_341_ _340_] _342_ d_lut_NAND2X1
AAOI21X1_33 [_334_ _329_ _342_] _343_ d_lut_AOI21X1
ANAND2X1_70 [_326_ _306_] _344_ d_lut_NAND2X1
AOAI21X1_54 [_311_ _344_ _334_] _345_ d_lut_OAI21X1
AINVX1_38 [_342_] _346_ d_lut_INVX1
ANOR2X1_39 [_346_ _345_] _347_ d_lut_NOR2X1
ANOR2X1_40 [_343_ _347_] micro_ucr_hash1.c_4__6_ d_lut_NOR2X1
AINVX1_39 [_387_] _348_ d_lut_INVX1
AAOI21X1_34 [_307_ _348_ _398_] _349_ d_lut_AOI21X1
AAOI21X1_35 [_362_ _363_ _372_] _350_ d_lut_AOI21X1
ANAND3X1_52 [_350_ _386_ _293_] _351_ d_lut_NAND3X1
AAOI21X1_36 [_349_ _351_ _344_] _352_ d_lut_AOI21X1
AOAI21X1_55 [_327_ _301_ _331_] _353_ d_lut_OAI21X1
AOAI21X1_56 [_352_ _353_ _346_] _354_ d_lut_OAI21X1
AXOR2X1_30 [micro_ucr_hash1.b_3__7_ bloque_bytes_63_] _355_ d_lut_XOR2X1
AXNOR2X1_27 [_355_ micro_ucr_hash1.a_3__7_] _356_ d_lut_XNOR2X1
AXNOR2X1_28 [_356_ _337_] _357_ d_lut_XNOR2X1
ANAND3X1_53 [_340_ _357_ _354_] _358_ d_lut_NAND3X1
AINVX1_40 [_340_] _359_ d_lut_INVX1
AINVX1_41 [_357_] _360_ d_lut_INVX1
AOAI21X1_57 [_343_ _359_ _360_] _361_ d_lut_OAI21X1
ANAND2X1_71 [_358_ _361_] micro_ucr_hash1.c_4__7_ d_lut_NAND2X1
AXOR2X1_31 [micro_ucr_hash1.b_5__4_ gnd] micro_ucr_hash1.a_5__0_ d_lut_XOR2X1
AXOR2X1_32 [micro_ucr_hash1.b_5__5_ gnd] micro_ucr_hash1.a_5__1_ d_lut_XOR2X1
AXOR2X1_33 [micro_ucr_hash1.b_5__6_ gnd] micro_ucr_hash1.a_5__2_ d_lut_XOR2X1
AXOR2X1_34 [micro_ucr_hash1.b_5__7_ gnd] micro_ucr_hash1.a_5__3_ d_lut_XOR2X1
AXOR2X1_35 [micro_ucr_hash1.c_4__4_ micro_ucr_hash1.b_4__4_] micro_ucr_hash1.a_5__4_ d_lut_XOR2X1
AXOR2X1_36 [micro_ucr_hash1.c_4__5_ micro_ucr_hash1.b_4__5_] micro_ucr_hash1.a_5__5_ d_lut_XOR2X1
AXOR2X1_37 [micro_ucr_hash1.c_4__6_ micro_ucr_hash1.b_4__6_] micro_ucr_hash1.a_5__6_ d_lut_XOR2X1
AXOR2X1_38 [micro_ucr_hash1.c_4__7_ micro_ucr_hash1.b_4__7_] micro_ucr_hash1.a_5__7_ d_lut_XOR2X1
AINVX2_21 [bloque_bytes_48_] _403_ d_lut_INVX2