* NGSPICE file created from modulo_rendimiento.ext - technology: scmos

* Black-box entry subcircuit for NAND2X1 abstract view
.subckt NAND2X1 A B gnd Y vdd
.ends

* Black-box entry subcircuit for NAND3X1 abstract view
.subckt NAND3X1 A B C gnd Y vdd
.ends

* Black-box entry subcircuit for BUFX2 abstract view
.subckt BUFX2 A gnd Y vdd
.ends

* Black-box entry subcircuit for NOR2X1 abstract view
.subckt NOR2X1 A B gnd Y vdd
.ends

* Black-box entry subcircuit for OAI21X1 abstract view
.subckt OAI21X1 A B C gnd Y vdd
.ends

* Black-box entry subcircuit for XNOR2X1 abstract view
.subckt XNOR2X1 A B gnd Y vdd
.ends

* Black-box entry subcircuit for INVX2 abstract view
.subckt INVX2 A gnd Y vdd
.ends

* Black-box entry subcircuit for CLKBUF1 abstract view
.subckt CLKBUF1 A gnd Y vdd
.ends

* Black-box entry subcircuit for INVX1 abstract view
.subckt INVX1 A gnd Y vdd
.ends

* Black-box entry subcircuit for FILL abstract view
.subckt FILL gnd vdd
.ends

* Black-box entry subcircuit for NOR3X1 abstract view
.subckt NOR3X1 A B C gnd Y vdd
.ends

* Black-box entry subcircuit for DFFPOSX1 abstract view
.subckt DFFPOSX1 Q CLK D gnd vdd
.ends

* Black-box entry subcircuit for XOR2X1 abstract view
.subckt XOR2X1 A B gnd Y vdd
.ends

* Black-box entry subcircuit for AOI21X1 abstract view
.subckt AOI21X1 A B C gnd Y vdd
.ends

* Black-box entry subcircuit for OR2X2 abstract view
.subckt OR2X2 A B gnd Y vdd
.ends

* Black-box entry subcircuit for AND2X2 abstract view
.subckt AND2X2 A B gnd Y vdd
.ends

* Black-box entry subcircuit for OAI22X1 abstract view
.subckt OAI22X1 A B C D gnd Y vdd
.ends

* Black-box entry subcircuit for BUFX4 abstract view
.subckt BUFX4 A gnd Y vdd
.ends

* Black-box entry subcircuit for MUX2X1 abstract view
.subckt MUX2X1 A B S gnd Y vdd
.ends

* Black-box entry subcircuit for AOI22X1 abstract view
.subckt AOI22X1 A B C D gnd Y vdd
.ends

* Black-box entry subcircuit for INVX4 abstract view
.subckt INVX4 A gnd Y vdd
.ends

* Black-box entry subcircuit for INVX8 abstract view
.subckt INVX8 A gnd Y vdd
.ends

.subckt modulo_rendimiento vdd gnd inicio bloque_bytes[0] bloque_bytes[1] bloque_bytes[2]
+ bloque_bytes[3] bloque_bytes[4] bloque_bytes[5] bloque_bytes[6] bloque_bytes[7]
+ bloque_bytes[8] bloque_bytes[9] bloque_bytes[10] bloque_bytes[11] bloque_bytes[12]
+ bloque_bytes[13] bloque_bytes[14] bloque_bytes[15] bloque_bytes[16] bloque_bytes[17]
+ bloque_bytes[18] bloque_bytes[19] bloque_bytes[20] bloque_bytes[21] bloque_bytes[22]
+ bloque_bytes[23] bloque_bytes[24] bloque_bytes[25] bloque_bytes[26] bloque_bytes[27]
+ bloque_bytes[28] bloque_bytes[29] bloque_bytes[30] bloque_bytes[31] bloque_bytes[32]
+ bloque_bytes[33] bloque_bytes[34] bloque_bytes[35] bloque_bytes[36] bloque_bytes[37]
+ bloque_bytes[38] bloque_bytes[39] bloque_bytes[40] bloque_bytes[41] bloque_bytes[42]
+ bloque_bytes[43] bloque_bytes[44] bloque_bytes[45] bloque_bytes[46] bloque_bytes[47]
+ bloque_bytes[48] bloque_bytes[49] bloque_bytes[50] bloque_bytes[51] bloque_bytes[52]
+ bloque_bytes[53] bloque_bytes[54] bloque_bytes[55] bloque_bytes[56] bloque_bytes[57]
+ bloque_bytes[58] bloque_bytes[59] bloque_bytes[60] bloque_bytes[61] bloque_bytes[62]
+ bloque_bytes[63] bloque_bytes[64] bloque_bytes[65] bloque_bytes[66] bloque_bytes[67]
+ bloque_bytes[68] bloque_bytes[69] bloque_bytes[70] bloque_bytes[71] bloque_bytes[72]
+ bloque_bytes[73] bloque_bytes[74] bloque_bytes[75] bloque_bytes[76] bloque_bytes[77]
+ bloque_bytes[78] bloque_bytes[79] bloque_bytes[80] bloque_bytes[81] bloque_bytes[82]
+ bloque_bytes[83] bloque_bytes[84] bloque_bytes[85] bloque_bytes[86] bloque_bytes[87]
+ bloque_bytes[88] bloque_bytes[89] bloque_bytes[90] bloque_bytes[91] bloque_bytes[92]
+ bloque_bytes[93] bloque_bytes[94] bloque_bytes[95] clk reset target[0] target[1]
+ target[2] target[3] target[4] target[5] target[6] target[7] terminado hash[0] hash[1]
+ hash[2] hash[3] hash[4] hash[5] hash[6] hash[7] hash[8] hash[9] hash[10] hash[11]
+ hash[12] hash[13] hash[14] hash[15] hash[16] hash[17] hash[18] hash[19] hash[20]
+ hash[21] hash[22] hash[23]
XNAND2X1_376 NAND2X1_376/A NAND2X1_375/Y gnd NOR2X1_212/B vdd NAND2X1
XNAND3X1_208 INVX1_134/A NAND3X1_208/B OR2X2_91/Y gnd AOI21X1_144/B vdd NAND3X1
XBUFX2_209 BUFX2_209/A gnd BUFX2_209/Y vdd BUFX2
XNOR2X1_62 OR2X2_36/A OR2X2_36/B gnd NOR2X1_62/Y vdd NOR2X1
XOAI21X1_226 INVX2_49/Y AND2X2_78/B INVX1_148/A gnd OAI21X1_227/B vdd OAI21X1
XXNOR2X1_247 AND2X2_191/B AND2X2_192/B gnd XNOR2X1_247/Y vdd XNOR2X1
XNAND2X1_340 NAND2X1_340/A INVX1_202/Y gnd INVX1_203/A vdd NAND2X1
XINVX2_47 INVX2_47/A gnd INVX2_47/Y vdd INVX2
XNOR2X1_259 BUFX2_205/A XOR2X1_213/Y gnd NOR2X1_259/Y vdd NOR2X1
XCLKBUF1_50 BUFX4_7/Y gnd CLKBUF1_50/Y vdd CLKBUF1
XXNOR2X1_211 bloque_bytes[51] bloque_bytes[11] gnd XNOR2X1_211/Y vdd XNOR2X1
XBUFX2_173 BUFX2_173/A gnd BUFX2_173/Y vdd BUFX2
XINVX1_588 INVX1_588/A gnd INVX1_588/Y vdd INVX1
XNAND3X1_172 INVX1_112/A NAND3X1_173/B OR2X2_75/Y gnd AOI21X1_120/B vdd NAND3X1
XNOR2X1_26 INVX1_18/Y NOR2X1_26/B gnd NOR2X1_27/B vdd NOR2X1
XOAI21X1_190 AND2X2_67/Y NOR2X1_124/Y INVX1_125/Y gnd NAND2X1_222/A vdd OAI21X1
XINVX2_11 INVX2_11/A gnd INVX2_11/Y vdd INVX2
XFILL_12_2_1 gnd vdd FILL
XNAND2X1_304 NAND2X1_304/A OAI21X1_262/Y gnd XOR2X1_159/A vdd NAND2X1
XFILL_14_0_0 gnd vdd FILL
XNOR2X1_223 BUFX2_189/A NOR2X1_223/B gnd NOR2X1_223/Y vdd NOR2X1
XCLKBUF1_14 BUFX4_3/Y gnd CLKBUF1_14/Y vdd CLKBUF1
XNAND3X1_136 INVX1_90/A AOI21X1_98/A OR2X2_59/Y gnd AOI21X1_96/B vdd NAND3X1
XINVX1_552 INVX1_552/A gnd INVX1_552/Y vdd INVX1
XBUFX2_137 gnd gnd BUFX2_137/Y vdd BUFX2
XXNOR2X1_175 XNOR2X1_174/Y OAI21X1_409/Y gnd INVX1_319/A vdd XNOR2X1
XOAI21X1_154 XNOR2X1_80/A AOI21X1_113/C AND2X2_54/B gnd XNOR2X1_81/A vdd OAI21X1
XXNOR2X1_97 XNOR2X1_97/A XNOR2X1_97/B gnd BUFX2_161/A vdd XNOR2X1
XNOR2X1_187 BUFX2_177/A NOR2X1_187/B gnd NOR2X1_187/Y vdd NOR2X1
XNAND2X1_268 gnd OR2X2_105/B gnd NAND3X1_239/B vdd NAND2X1
XNOR3X1_67 NOR3X1_67/A NOR3X1_67/B NOR3X1_67/C gnd NOR3X1_67/Y vdd NOR3X1
XFILL_35_9_1 gnd vdd FILL
XBUFX2_101 gnd gnd BUFX2_101/Y vdd BUFX2
XNAND3X1_100 INVX1_68/A AOI21X1_74/A OR2X2_43/Y gnd AOI21X1_72/B vdd NAND3X1
XINVX1_516 INVX1_516/A gnd INVX1_516/Y vdd INVX1
XDFFPOSX1_334 INVX1_386/A CLKBUF1_45/Y OR2X2_148/Y gnd vdd DFFPOSX1
XOAI21X1_118 AND2X2_41/Y NOR2X1_82/Y INVX1_80/Y gnd NAND3X1_123/A vdd OAI21X1
XXNOR2X1_61 XNOR2X1_61/A XNOR2X1_61/B gnd XOR2X1_74/A vdd XNOR2X1
XXNOR2X1_139 gnd XOR2X1_142/Y gnd XNOR2X1_140/A vdd XNOR2X1
XNAND2X1_232 gnd OR2X2_90/B gnd NAND2X1_232/Y vdd NAND2X1
XNOR2X1_151 NOR2X1_151/A INVX2_51/A gnd XOR2X1_140/B vdd NOR2X1
XNOR3X1_31 INVX1_44/Y NOR3X1_31/B NOR3X1_31/C gnd NOR3X1_31/Y vdd NOR3X1
XDFFPOSX1_298 INVX1_301/A CLKBUF1_17/Y AOI21X1_386/C gnd vdd DFFPOSX1
XFILL_11_5_0 gnd vdd FILL
XINVX1_480 INVX1_480/A gnd INVX1_480/Y vdd INVX1
XXNOR2X1_103 gnd XOR2X1_102/Y gnd XNOR2X1_104/A vdd XNOR2X1
XXOR2X1_295 XOR2X1_295/A BUFX2_238/A gnd XOR2X1_295/Y vdd XOR2X1
XXNOR2X1_25 XNOR2X1_25/A OAI21X1_46/B gnd BUFX2_249/A vdd XNOR2X1
XNOR2X1_115 NOR2X1_115/A INVX1_115/Y gnd NOR2X1_115/Y vdd NOR2X1
XNAND2X1_196 INVX1_118/A NAND2X1_196/B gnd OAI21X1_165/A vdd NAND2X1
XAOI21X1_94 AOI21X1_92/Y AOI21X1_94/B AOI21X1_94/C gnd AOI21X1_94/Y vdd AOI21X1
XDFFPOSX1_262 INVX1_215/A CLKBUF1_31/Y INVX1_520/Y gnd vdd DFFPOSX1
XOAI21X1_623 NOR2X1_410/B NOR2X1_410/A OR2X2_142/B gnd AOI21X1_386/A vdd OAI21X1
XFILL_21_0_0 gnd vdd FILL
XOR2X2_83 gnd OR2X2_83/B gnd OR2X2_83/Y vdd OR2X2
XINVX1_444 INVX1_444/A gnd INVX1_444/Y vdd INVX1
XFILL_1_1_0 gnd vdd FILL
XFILL_19_2_1 gnd vdd FILL
XBUFX2_97 gnd gnd BUFX2_97/Y vdd BUFX2
XXOR2X1_259 XOR2X1_259/A BUFX2_222/A gnd XOR2X1_259/Y vdd XOR2X1
XAOI21X1_396 AOI21X1_396/A AOI21X1_396/B NOR3X1_98/Y gnd INVX2_93/A vdd AOI21X1
XNAND2X1_160 OR2X2_60/A OR2X2_60/B gnd AOI21X1_100/A vdd NAND2X1
XDFFPOSX1_226 INVX2_50/A CLKBUF1_18/Y NOR2X1_410/A gnd vdd DFFPOSX1
XAOI21X1_58 AOI21X1_58/A AOI21X1_58/B NAND2X1_94/Y gnd OAI21X1_74/A vdd AOI21X1
XOR2X2_47 OR2X2_47/A INVX1_72/Y gnd OR2X2_47/Y vdd OR2X2
XOAI21X1_587 NAND3X1_501/Y INVX2_80/Y BUFX4_30/Y gnd AOI21X1_347/C vdd OAI21X1
XINVX1_408 INVX1_408/A gnd INVX1_408/Y vdd INVX1
XNAND2X1_701 NOR2X1_444/B OAI21X1_633/Y gnd NAND2X1_701/Y vdd NAND2X1
XXOR2X1_223 XOR2X1_223/A BUFX2_206/A gnd XOR2X1_223/Y vdd XOR2X1
XBUFX2_61 gnd gnd BUFX2_61/Y vdd BUFX2
XNAND3X1_533 NAND3X1_533/A NAND3X1_533/B NAND2X1_704/Y gnd XNOR2X1_254/B vdd NAND3X1
XNAND2X1_124 AND2X2_36/B AND2X2_36/A gnd AOI21X1_77/C vdd NAND2X1
XAOI21X1_360 bloque_bytes[78] INVX2_87/Y INVX1_548/A gnd OAI21X1_599/C vdd AOI21X1
XAOI21X1_22 AOI21X1_22/A AOI21X1_22/B OAI21X1_21/B gnd OAI21X1_23/A vdd AOI21X1
XFILL_9_1 gnd vdd FILL
XDFFPOSX1_190 INVX1_102/A CLKBUF1_49/Y bloque_bytes[20] gnd vdd DFFPOSX1
XDFFPOSX1_2 BUFX2_1/A CLKBUF1_4/Y NOR3X1_1/Y gnd vdd DFFPOSX1
XOR2X2_11 gnd OR2X2_11/B gnd OR2X2_11/Y vdd OR2X2
XXOR2X1_187 XOR2X1_187/A BUFX2_186/A gnd XOR2X1_187/Y vdd XOR2X1
XINVX1_372 INVX1_372/A gnd INVX1_372/Y vdd INVX1
XOAI21X1_551 NOR3X1_86/A NOR3X1_86/C INVX2_73/A gnd NOR2X1_349/A vdd OAI21X1
XNAND2X1_665 bloque_bytes[2] OR2X2_139/A gnd AOI21X1_381/A vdd NAND2X1
XBUFX2_25 BUFX4_8/Y gnd terminado vdd BUFX2
XOAI21X1_70 AND2X2_25/Y NOR2X1_54/Y INVX1_48/A gnd NAND3X1_71/B vdd OAI21X1
XNAND2X1_85 INVX2_21/Y NAND3X1_74/C gnd OAI21X1_69/A vdd NAND2X1
XNAND3X1_497 inicio INVX1_486/Y AND2X2_174/Y gnd NOR3X1_91/C vdd NAND3X1
XDFFPOSX1_88 INVX2_81/A CLKBUF1_6/Y AOI21X1_348/Y gnd vdd DFFPOSX1
XAOI21X1_324 INVX2_74/Y NAND2X1_611/Y OAI21X1_568/Y gnd AOI21X1_324/Y vdd AOI21X1
XFILL_16_7_1 gnd vdd FILL
XFILL_18_5_0 gnd vdd FILL
XDFFPOSX1_154 INVX2_23/A CLKBUF1_44/Y bloque_bytes[48] gnd vdd DFFPOSX1
XINVX1_336 INVX1_336/A gnd INVX1_336/Y vdd INVX1
XOAI21X1_515 gnd NOR2X1_327/B INVX1_419/A gnd INVX1_421/A vdd OAI21X1
XNAND2X1_629 NOR2X1_403/Y AND2X2_172/B gnd INVX2_84/A vdd NAND2X1
XXOR2X1_151 BUFX2_170/A XOR2X1_151/B gnd XOR2X1_151/Y vdd XOR2X1
XBUFX2_3 BUFX2_3/A gnd hash[2] vdd BUFX2
XFILL_26_2_1 gnd vdd FILL
XAOI21X1_288 AOI21X1_288/A AOI21X1_288/B AOI21X1_288/C gnd OAI21X1_486/A vdd AOI21X1
XFILL_28_0_0 gnd vdd FILL
XNAND2X1_49 XOR2X1_3/A OR2X2_13/B gnd NAND3X1_34/B vdd NAND2X1
XOAI21X1_34 OAI21X1_29/A XNOR2X1_16/B OAI21X1_34/C gnd OAI21X1_34/Y vdd OAI21X1
XDFFPOSX1_118 INVX1_593/A CLKBUF1_25/Y bloque_bytes[92] gnd vdd DFFPOSX1
XFILL_6_3_1 gnd vdd FILL
XFILL_8_1_0 gnd vdd FILL
XDFFPOSX1_52 INVX1_544/A CLKBUF1_36/Y AND2X2_167/Y gnd vdd DFFPOSX1
XNAND3X1_461 INVX1_430/Y INVX1_433/Y AND2X2_149/A gnd NAND3X1_461/Y vdd NAND3X1
XXOR2X1_95 XOR2X1_90/Y gnd gnd OR2X2_83/B vdd XOR2X1
XXOR2X1_115 BUFX2_162/A gnd gnd OR2X2_99/B vdd XOR2X1
XINVX1_300 INVX1_300/A gnd INVX1_300/Y vdd INVX1
XOAI21X1_479 BUFX2_219/A INVX1_385/A INVX1_386/Y gnd OAI21X1_479/Y vdd OAI21X1
XNAND2X1_593 INVX1_455/Y NOR2X1_348/Y gnd NAND3X1_476/B vdd NAND2X1
XNAND2X1_13 INVX1_7/A INVX4_1/Y gnd NAND3X1_3/A vdd NAND2X1
XNAND3X1_425 INVX1_382/A NAND3X1_425/B NAND3X1_425/C gnd AOI21X1_287/A vdd NAND3X1
XAOI21X1_252 OAI21X1_403/Y AOI21X1_252/B INVX1_307/A gnd NOR2X1_256/A vdd AOI21X1
XINVX1_264 INVX1_264/A gnd INVX1_264/Y vdd INVX1
XDFFPOSX1_16 BUFX2_15/A CLKBUF1_28/Y NOR3X1_15/Y gnd vdd DFFPOSX1
XNAND3X1_90 INVX1_59/A NAND3X1_88/B OR2X2_37/Y gnd OR2X2_40/B vdd NAND3X1
XAND2X2_195 vdd gnd gnd AND2X2_195/Y vdd AND2X2
XXOR2X1_59 XOR2X1_59/A XOR2X1_61/A gnd XOR2X1_59/Y vdd XOR2X1
XOAI21X1_443 NOR2X1_281/Y NOR2X1_280/B AOI22X1_16/C gnd XOR2X1_242/A vdd OAI21X1
XNAND2X1_557 INVX1_419/A NOR2X1_327/Y gnd NAND3X1_451/C vdd NAND2X1
XOR2X2_142 OR2X2_142/A OR2X2_142/B gnd OR2X2_142/Y vdd OR2X2
XAOI21X1_216 AOI21X1_216/A AOI21X1_216/B NAND2X1_355/Y gnd OAI21X1_315/A vdd AOI21X1
XNAND3X1_389 INVX1_329/A INVX1_327/Y INVX1_328/Y gnd NAND3X1_389/Y vdd NAND3X1
XAND2X2_159 BUFX4_33/Y AND2X2_159/B gnd AND2X2_159/Y vdd AND2X2
XINVX1_228 NOR3X1_61/B gnd INVX1_228/Y vdd INVX1
XFILL_25_5_0 gnd vdd FILL
XOAI21X1_407 BUFX2_204/A XOR2X1_212/Y INVX1_311/A gnd AOI22X1_14/B vdd OAI21X1
XNAND3X1_54 INVX1_37/A NAND3X1_52/B OR2X2_21/Y gnd OR2X2_24/B vdd NAND3X1
XXOR2X1_23 OR2X2_29/A gnd gnd OR2X2_25/B vdd XOR2X1
XFILL_5_6_0 gnd vdd FILL
XFILL_23_7_1 gnd vdd FILL
XOR2X2_106 gnd AND2X2_81/B gnd OR2X2_106/Y vdd OR2X2
XNAND2X1_521 AOI21X1_287/A INVX1_389/A gnd NAND2X1_521/Y vdd NAND2X1
XNOR2X1_440 NOR2X1_439/Y NOR2X1_440/B gnd NOR2X1_440/Y vdd NOR2X1
XFILL_3_8_1 gnd vdd FILL
XAOI21X1_180 AOI21X1_180/A AOI21X1_180/B AOI21X1_180/C gnd NOR2X1_161/A vdd AOI21X1
XNAND3X1_353 AOI22X1_12/B INVX1_276/A INVX1_274/Y gnd NAND2X1_410/B vdd NAND3X1
XNAND2X1_2 NAND2X1_2/A NAND2X1_2/B gnd NOR2X1_2/A vdd NAND2X1
XINVX1_74 INVX1_74/A gnd INVX1_74/Y vdd INVX1
XFILL_35_0_0 gnd vdd FILL
XOAI22X1_1 INVX4_1/Y INVX2_1/A INVX2_3/Y INVX2_2/A gnd NOR2X1_8/A vdd OAI22X1
XNAND3X1_18 INVX1_15/A NAND3X1_16/B OR2X2_5/Y gnd OR2X2_8/B vdd NAND3X1
XINVX1_192 INVX1_192/A gnd INVX1_192/Y vdd INVX1
XNOR2X1_404 INVX2_78/Y INVX2_79/Y gnd NOR2X1_404/Y vdd NOR2X1
XOAI21X1_371 BUFX2_193/A XOR2X1_195/Y INVX1_277/A gnd OAI21X1_371/Y vdd OAI21X1
XAND2X2_123 AND2X2_123/A INVX1_302/Y gnd NOR3X1_70/C vdd AND2X2
XFILL_33_2_1 gnd vdd FILL
XNAND2X1_485 INVX1_349/Y NOR2X1_282/Y gnd INVX1_352/A vdd NAND2X1
XNAND3X1_317 INVX1_223/Y INVX1_222/A AOI21X1_218/B gnd AND2X2_105/B vdd NAND3X1
XAND2X2_96 AND2X2_96/A AND2X2_96/B gnd AND2X2_96/Y vdd AND2X2
XAOI21X1_144 AOI21X1_144/A AOI21X1_144/B NAND3X1_206/C gnd NOR2X1_131/A vdd AOI21X1
XINVX1_38 INVX1_38/A gnd INVX1_38/Y vdd INVX1
XOAI21X1_335 NOR2X1_209/A NOR3X1_61/Y OAI21X1_335/C gnd AOI21X1_226/B vdd OAI21X1
XINVX1_156 INVX1_156/A gnd INVX1_156/Y vdd INVX1
XNOR2X1_368 BUFX4_16/Y INVX1_479/Y gnd NOR2X1_368/Y vdd NOR2X1
XNAND2X1_449 INVX1_303/A NOR2X1_252/Y gnd NAND2X1_449/Y vdd NAND2X1
XAOI21X1_108 NAND3X1_157/A NAND3X1_154/Y AOI21X1_108/C gnd NOR2X1_101/A vdd AOI21X1
XAND2X2_60 AND2X2_60/A AND2X2_60/B gnd AND2X2_60/Y vdd AND2X2
XNAND3X1_281 INVX1_178/Y NAND3X1_281/B OR2X2_123/Y gnd AOI21X1_193/B vdd NAND3X1
XOAI21X1_299 gnd XOR2X1_162/Y INVX1_206/A gnd NAND2X1_344/A vdd OAI21X1
XINVX1_120 INVX1_120/A gnd INVX1_120/Y vdd INVX1
XNOR2X1_332 INVX1_428/Y NOR2X1_332/B gnd INVX1_430/A vdd NOR2X1
XNAND2X1_413 INVX1_277/Y NOR2X1_235/Y gnd NAND2X1_414/B vdd NAND2X1
XAND2X2_24 AND2X2_24/A AND2X2_24/B gnd AND2X2_24/Y vdd AND2X2
XNAND3X1_245 INVX1_156/Y NAND3X1_245/B OR2X2_107/Y gnd AOI21X1_169/B vdd NAND3X1
XFILL_32_5_0 gnd vdd FILL
XFILL_30_7_1 gnd vdd FILL
XBUFX2_246 BUFX2_246/A gnd BUFX2_246/Y vdd BUFX2
XNOR2X1_99 gnd OR2X2_66/B gnd NOR3X1_42/B vdd NOR2X1
XINVX2_84 INVX2_84/A gnd INVX2_84/Y vdd INVX2
XOAI21X1_263 NOR3X1_55/C NOR3X1_55/B NOR3X1_55/A gnd OAI21X1_263/Y vdd OAI21X1
XNOR2X1_296 INVX1_371/Y NOR2X1_296/B gnd INVX1_373/A vdd NOR2X1
XNAND2X1_377 INVX1_238/Y NOR2X1_212/B gnd NAND2X1_378/A vdd NAND2X1
XNAND3X1_209 INVX1_134/Y NAND3X1_208/B OR2X2_91/Y gnd AOI21X1_145/B vdd NAND3X1
XBUFX2_210 BUFX2_210/A gnd BUFX2_210/Y vdd BUFX2
XNOR2X1_63 NOR2X1_63/A NOR2X1_63/B gnd NOR2X1_63/Y vdd NOR2X1
XOAI21X1_227 OAI21X1_227/A OAI21X1_227/B INVX1_150/Y gnd NAND3X1_238/C vdd OAI21X1
XXNOR2X1_248 NOR2X1_442/B INVX1_583/A gnd XNOR2X1_248/Y vdd XNOR2X1
XNAND2X1_341 NAND2X1_341/A AOI22X1_8/C gnd AOI21X1_209/C vdd NAND2X1
XINVX2_48 INVX2_48/A gnd INVX2_48/Y vdd INVX2
XNOR2X1_260 INVX1_314/Y NOR2X1_260/B gnd INVX1_316/A vdd NOR2X1
XNOR2X1_27 NOR2X1_27/A NOR2X1_27/B gnd XOR2X1_18/A vdd NOR2X1
XBUFX2_174 BUFX2_174/A gnd BUFX2_174/Y vdd BUFX2
XXNOR2X1_212 bloque_bytes[52] bloque_bytes[12] gnd NAND2X1_654/A vdd XNOR2X1
XCLKBUF1_51 BUFX4_4/Y gnd CLKBUF1_51/Y vdd CLKBUF1
XINVX1_589 INVX1_589/A gnd INVX1_589/Y vdd INVX1
XNAND3X1_173 INVX1_112/Y NAND3X1_173/B OR2X2_75/Y gnd AOI21X1_121/B vdd NAND3X1
XINVX2_12 INVX2_12/A gnd INVX2_12/Y vdd INVX2
XFILL_14_0_1 gnd vdd FILL
XOAI21X1_191 XNOR2X1_98/A AOI21X1_142/C NOR2X1_125/Y gnd NOR2X1_126/B vdd OAI21X1
XNOR2X1_224 INVX1_257/Y NOR2X1_224/B gnd INVX1_259/A vdd NOR2X1
XNAND2X1_305 INVX2_56/Y XNOR2X1_140/A gnd NAND3X1_276/C vdd NAND2X1
XCLKBUF1_15 BUFX4_7/Y gnd CLKBUF1_15/Y vdd CLKBUF1
XBUFX2_138 gnd gnd BUFX2_138/Y vdd BUFX2
XINVX1_553 INVX1_553/A gnd INVX1_553/Y vdd INVX1
XNAND3X1_137 INVX1_90/Y AOI21X1_98/A OR2X2_59/Y gnd AOI21X1_97/B vdd NAND3X1
XXNOR2X1_98 XNOR2X1_98/A AND2X2_66/Y gnd XNOR2X1_98/Y vdd XNOR2X1
XOAI21X1_155 AND2X2_55/Y NOR2X1_104/Y INVX1_103/A gnd OAI21X1_155/Y vdd OAI21X1
XXNOR2X1_176 NOR2X1_266/A NAND2X1_464/Y gnd BUFX2_218/A vdd XNOR2X1
XNOR2X1_188 INVX1_200/Y NOR2X1_188/B gnd INVX1_202/A vdd NOR2X1
XNAND2X1_269 NAND2X1_269/A NAND2X1_269/B gnd XNOR2X1_123/A vdd NAND2X1
XDFFPOSX1_335 INVX1_387/A CLKBUF1_19/Y NAND2X1_681/Y gnd vdd DFFPOSX1
XNOR3X1_68 NOR3X1_68/A INVX2_64/Y NOR3X1_68/C gnd NOR3X1_68/Y vdd NOR3X1
XNAND3X1_101 INVX1_68/Y AOI21X1_74/A OR2X2_43/Y gnd AOI21X1_73/B vdd NAND3X1
XINVX1_517 INVX1_517/A gnd INVX1_517/Y vdd INVX1
XBUFX2_102 gnd gnd BUFX2_102/Y vdd BUFX2
XOAI21X1_119 OAI21X1_119/A XNOR2X1_61/B AOI21X1_87/Y gnd NAND3X1_128/C vdd OAI21X1
XXNOR2X1_62 XNOR2X1_62/A AND2X2_42/Y gnd XOR2X1_76/A vdd XNOR2X1
XXNOR2X1_140 XNOR2X1_140/A INVX2_56/Y gnd BUFX2_179/A vdd XNOR2X1
XNAND2X1_233 NAND2X1_233/A NAND2X1_233/B gnd XNOR2X1_106/A vdd NAND2X1
XNOR2X1_152 OR2X2_108/A OR2X2_108/B gnd NOR2X1_152/Y vdd NOR2X1
XNOR3X1_32 INVX1_45/Y NOR2X1_49/Y AND2X2_21/Y gnd NOR2X1_53/B vdd NOR3X1
XINVX1_481 INVX1_481/A gnd INVX1_481/Y vdd INVX1
XFILL_13_3_0 gnd vdd FILL
XDFFPOSX1_299 INVX1_302/A CLKBUF1_34/Y AOI21X1_387/C gnd vdd DFFPOSX1
XFILL_11_5_1 gnd vdd FILL
XXNOR2X1_104 XNOR2X1_104/A INVX2_44/Y gnd OR2X2_108/A vdd XNOR2X1
XXOR2X1_296 XOR2X1_296/A XOR2X1_296/B gnd XOR2X1_296/Y vdd XOR2X1
XXNOR2X1_26 OAI21X1_55/A AND2X2_18/Y gnd XOR2X1_36/A vdd XNOR2X1
XNOR2X1_116 INVX1_117/Y NOR2X1_116/B gnd NOR2X1_117/B vdd NOR2X1
XNAND2X1_197 gnd OR2X2_75/B gnd NAND3X1_173/B vdd NAND2X1
XDFFPOSX1_263 INVX1_216/A CLKBUF1_11/Y INVX1_523/Y gnd vdd DFFPOSX1
XOR2X2_84 OR2X2_84/A OR2X2_84/B gnd OR2X2_84/Y vdd OR2X2
XOAI21X1_624 NOR2X1_411/B NOR2X1_411/A OR2X2_143/B gnd OAI21X1_624/Y vdd OAI21X1
XFILL_21_0_1 gnd vdd FILL
XAOI21X1_95 AOI21X1_95/A OR2X2_58/Y INVX1_89/A gnd NOR2X1_93/A vdd AOI21X1
XINVX1_445 INVX1_445/A gnd INVX1_445/Y vdd INVX1
XFILL_1_1_1 gnd vdd FILL
XBUFX2_98 gnd gnd BUFX2_98/Y vdd BUFX2
XXOR2X1_260 XOR2X1_260/A XOR2X1_260/B gnd XOR2X1_266/A vdd XOR2X1
XAOI21X1_397 NAND3X1_537/B OR2X2_157/Y INVX1_592/A gnd NAND3X1_542/C vdd AOI21X1
XNAND2X1_161 INVX2_33/Y NAND3X1_146/C gnd XNOR2X1_71/A vdd NAND2X1
XAOI21X1_59 NAND2X1_99/Y OR2X2_34/Y INVX1_56/A gnd NOR2X1_63/A vdd AOI21X1
XDFFPOSX1_227 INVX1_154/A CLKBUF1_40/Y NOR2X1_411/A gnd vdd DFFPOSX1
XOR2X2_48 OR2X2_48/A OR2X2_48/B gnd OR2X2_48/Y vdd OR2X2
XOAI21X1_588 NAND3X1_501/Y NAND2X1_636/Y BUFX4_30/Y gnd OAI21X1_588/Y vdd OAI21X1
XINVX1_409 INVX1_409/A gnd INVX1_409/Y vdd INVX1
XXOR2X1_224 XOR2X1_224/A XOR2X1_224/B gnd XOR2X1_230/A vdd XOR2X1
XNAND2X1_702 INVX1_589/Y NOR2X1_444/Y gnd NAND2X1_703/B vdd NAND2X1
XBUFX2_62 gnd gnd BUFX2_62/Y vdd BUFX2
XNAND3X1_534 INVX1_591/A AOI21X1_394/A OR2X2_156/Y gnd NAND3X1_535/C vdd NAND3X1
XNAND2X1_125 OR2X2_45/A OR2X2_45/B gnd NAND3X1_106/B vdd NAND2X1
XFILL_9_2 gnd vdd FILL
XFILL_10_8_0 gnd vdd FILL
XAOI21X1_361 bloque_bytes[79] INVX1_505/Y OR2X2_149/B gnd AND2X2_177/A vdd AOI21X1
XOR2X2_12 XOR2X1_2/A OR2X2_12/B gnd OR2X2_12/Y vdd OR2X2
XAOI21X1_23 NAND3X1_25/B OR2X2_10/Y INVX1_23/A gnd NOR2X1_33/A vdd AOI21X1
XDFFPOSX1_191 INVX1_103/A CLKBUF1_16/Y bloque_bytes[21] gnd vdd DFFPOSX1
XOAI21X1_552 gnd XOR2X1_282/Y INVX1_457/Y gnd OAI21X1_552/Y vdd OAI21X1
XDFFPOSX1_3 BUFX2_2/A CLKBUF1_4/Y NOR3X1_2/Y gnd vdd DFFPOSX1
XINVX1_373 INVX1_373/A gnd INVX1_373/Y vdd INVX1
XXOR2X1_188 XOR2X1_188/A XOR2X1_188/B gnd XOR2X1_188/Y vdd XOR2X1
XNAND2X1_666 bloque_bytes[3] OR2X2_152/B gnd AOI21X1_382/B vdd NAND2X1
XAOI21X1_325 INVX1_474/A INVX4_2/Y OAI21X1_570/Y gnd DFFPOSX1_63/D vdd AOI21X1
XFILL_18_5_1 gnd vdd FILL
XFILL_20_3_0 gnd vdd FILL
XBUFX2_26 BUFX2_26/A gnd BUFX2_26/Y vdd BUFX2
XFILL_0_4_0 gnd vdd FILL
XOAI21X1_71 AND2X2_25/Y NOR2X1_54/Y INVX1_48/Y gnd NAND3X1_73/A vdd OAI21X1
XNAND2X1_86 AND2X2_24/B AND2X2_24/A gnd OAI21X1_69/B vdd NAND2X1
XDFFPOSX1_89 INVX1_485/A CLKBUF1_16/Y NOR3X1_96/Y gnd vdd DFFPOSX1
XDFFPOSX1_155 INVX1_55/A CLKBUF1_33/Y bloque_bytes[49] gnd vdd DFFPOSX1
XNAND3X1_498 INVX1_491/Y NOR3X1_91/Y INVX2_84/Y gnd NOR3X1_95/C vdd NAND3X1
XINVX1_337 INVX1_337/A gnd INVX1_337/Y vdd INVX1
XOAI21X1_516 INVX1_422/A INVX1_423/A INVX1_424/A gnd INVX1_426/A vdd OAI21X1
XNAND2X1_630 INVX2_84/Y INVX2_83/A gnd OAI21X1_583/A vdd NAND2X1
XXOR2X1_152 INVX1_194/A gnd gnd NOR2X1_178/B vdd XOR2X1
XBUFX2_4 BUFX2_4/A gnd hash[3] vdd BUFX2
XNAND2X1_50 AOI21X1_29/A AOI21X1_29/B gnd INVX2_16/A vdd NAND2X1
XNAND3X1_462 INVX2_72/A NAND3X1_462/B NAND2X1_573/Y gnd NOR3X1_83/A vdd NAND3X1
XAOI21X1_289 NAND2X1_524/A NAND2X1_524/B AOI21X1_289/C gnd AOI21X1_289/Y vdd AOI21X1
XFILL_28_0_1 gnd vdd FILL
XOAI21X1_35 OAI21X1_35/A OAI21X1_35/B AND2X2_12/B gnd OAI21X1_35/Y vdd OAI21X1
XDFFPOSX1_119 INVX1_594/A CLKBUF1_25/Y bloque_bytes[93] gnd vdd DFFPOSX1
XFILL_8_1_1 gnd vdd FILL
XDFFPOSX1_53 INVX1_571/A CLKBUF1_14/Y NOR2X1_375/Y gnd vdd DFFPOSX1
XXOR2X1_116 XNOR2X1_98/Y OR2X2_92/A gnd AND2X2_77/B vdd XOR2X1
XXOR2X1_96 XOR2X1_96/A OR2X2_76/A gnd OR2X2_84/B vdd XOR2X1
XOAI21X1_480 NOR3X1_77/C OAI21X1_474/C INVX1_389/A gnd NOR2X1_305/A vdd OAI21X1
XINVX1_301 INVX1_301/A gnd INVX1_301/Y vdd INVX1
XNAND2X1_594 INVX1_458/A NAND3X1_476/B gnd INVX1_456/A vdd NAND2X1
XDFFPOSX1_17 BUFX2_16/A CLKBUF1_48/Y NOR3X1_16/Y gnd vdd DFFPOSX1
XNAND2X1_14 INVX1_8/A INVX2_3/Y gnd NAND3X1_3/B vdd NAND2X1
XNAND3X1_426 INVX1_383/A AOI21X1_285/B INVX1_382/Y gnd INVX1_389/A vdd NAND3X1
XAOI21X1_253 INVX1_307/A AOI21X1_253/B INVX1_306/Y gnd NOR3X1_69/C vdd AOI21X1
XAND2X2_196 gnd gnd gnd AND2X2_196/Y vdd AND2X2
XFILL_17_8_0 gnd vdd FILL
XINVX1_265 INVX1_265/A gnd INVX1_265/Y vdd INVX1
XOAI21X1_444 BUFX2_212/A XOR2X1_230/Y INVX1_349/Y gnd OAI21X1_444/Y vdd OAI21X1
XNAND3X1_91 NAND3X1_91/A OR2X2_40/B OR2X2_38/B gnd AOI21X1_65/B vdd NAND3X1
XXOR2X1_60 XOR2X1_60/A NOR2X1_71/Y gnd BUFX2_262/A vdd XOR2X1
XOR2X2_143 OR2X2_143/A OR2X2_143/B gnd OR2X2_143/Y vdd OR2X2
XNAND2X1_558 INVX1_419/Y NOR2X1_327/Y gnd NAND3X1_452/B vdd NAND2X1
XAOI21X1_217 AOI21X1_217/A AOI21X1_217/B NAND2X1_360/Y gnd OAI21X1_316/C vdd AOI21X1
XFILL_27_3_0 gnd vdd FILL
XNAND3X1_390 INVX1_331/A NAND3X1_388/Y INVX1_326/Y gnd AOI22X1_15/C vdd NAND3X1
XXOR2X1_24 BUFX2_241/A gnd gnd OR2X2_26/B vdd XOR2X1
XFILL_7_4_0 gnd vdd FILL
XAND2X2_160 INVX8_2/A AND2X2_169/B gnd AND2X2_160/Y vdd AND2X2
XINVX1_229 INVX1_229/A gnd INVX1_229/Y vdd INVX1
XFILL_25_5_1 gnd vdd FILL
XOAI21X1_408 gnd NOR2X1_252/B INVX1_303/Y gnd OAI21X1_408/Y vdd OAI21X1
XNOR2X1_441 INVX2_91/Y INVX1_581/Y gnd NOR2X1_441/Y vdd NOR2X1
XNAND3X1_55 NAND3X1_55/A OR2X2_24/B OR2X2_22/B gnd AOI21X1_41/B vdd NAND3X1
XFILL_5_6_1 gnd vdd FILL
XOR2X2_107 gnd AND2X2_82/B gnd OR2X2_107/Y vdd OR2X2
XNAND2X1_522 INVX1_387/A NOR2X1_306/Y gnd NAND3X1_430/C vdd NAND2X1
XAOI21X1_181 OAI21X1_252/Y NAND3X1_263/Y NOR3X1_54/Y gnd INVX2_54/A vdd AOI21X1
XNAND3X1_354 INVX1_266/Y NAND3X1_347/Y NOR3X1_66/Y gnd AOI21X1_240/B vdd NAND3X1
XNAND2X1_3 NAND2X1_3/A NAND2X1_3/B gnd OAI21X1_2/A vdd NAND2X1
XINVX1_75 OR2X2_48/Y gnd INVX1_75/Y vdd INVX1
XINVX1_193 INVX1_193/A gnd INVX1_193/Y vdd INVX1
XOAI22X1_2 INVX2_1/Y target[5] target[4] INVX2_2/Y gnd NOR2X1_8/B vdd OAI22X1
XFILL_35_0_1 gnd vdd FILL
XNAND3X1_19 NAND3X1_19/A OR2X2_8/B OR2X2_6/B gnd AOI21X1_17/B vdd NAND3X1
XNOR2X1_405 NOR2X1_405/A NOR2X1_405/B gnd NOR2X1_405/Y vdd NOR2X1
XOAI21X1_372 OAI21X1_372/A INVX1_280/A INVX1_279/Y gnd AND2X2_117/A vdd OAI21X1
XAND2X2_124 AND2X2_124/A NOR3X1_69/A gnd BUFX2_212/A vdd AND2X2
XNAND2X1_486 NAND2X1_486/A NAND2X1_486/B gnd XOR2X1_242/B vdd NAND2X1
XAOI21X1_145 AOI21X1_145/A AOI21X1_145/B NOR3X1_48/Y gnd INVX2_45/A vdd AOI21X1
XINVX1_39 INVX1_39/A gnd OR2X2_23/B vdd INVX1
XNAND3X1_318 INVX1_221/Y INVX1_224/Y AND2X2_105/A gnd NAND2X1_361/B vdd NAND3X1
XAND2X2_97 OR2X2_125/A OR2X2_125/B gnd AND2X2_97/Y vdd AND2X2
XOAI21X1_336 OAI21X1_336/A INVX1_240/A INVX1_243/A gnd NAND2X1_380/A vdd OAI21X1
XINVX1_157 INVX1_157/A gnd INVX1_157/Y vdd INVX1
XNOR2X1_369 BUFX4_16/Y INVX1_480/Y gnd NOR2X1_369/Y vdd NOR2X1
XNAND2X1_450 XOR2X1_224/B NOR2X1_256/Y gnd NAND2X1_450/Y vdd NAND2X1
XAOI21X1_109 AOI21X1_109/A AOI21X1_109/B NOR3X1_42/Y gnd INVX2_36/A vdd AOI21X1
XNAND3X1_282 INVX1_179/Y AOI21X1_196/A OR2X2_124/Y gnd NAND3X1_283/B vdd NAND3X1
XFILL_24_8_0 gnd vdd FILL
XAND2X2_61 OR2X2_77/A OR2X2_77/B gnd AND2X2_61/Y vdd AND2X2
XFILL_4_9_0 gnd vdd FILL
XINVX1_121 INVX1_121/A gnd INVX1_121/Y vdd INVX1
XOAI21X1_300 gnd NOR2X1_191/B INVX1_207/A gnd INVX2_60/A vdd OAI21X1
XNOR2X1_333 BUFX2_230/A NOR2X1_333/B gnd NOR2X1_333/Y vdd NOR2X1
XNAND2X1_414 OAI21X1_371/Y NAND2X1_414/B gnd NOR2X1_236/B vdd NAND2X1
XFILL_34_3_0 gnd vdd FILL
XAND2X2_25 OR2X2_29/A OR2X2_29/B gnd AND2X2_25/Y vdd AND2X2
XBUFX2_247 OR2X2_36/A gnd BUFX2_247/Y vdd BUFX2
XNAND3X1_246 INVX1_157/Y NAND3X1_248/B OR2X2_108/Y gnd NAND3X1_247/B vdd NAND3X1
XFILL_32_5_1 gnd vdd FILL
XOAI21X1_264 NOR3X1_56/Y NOR2X1_173/A NOR3X1_55/Y gnd NAND2X1_309/B vdd OAI21X1
XBUFX4_10 BUFX4_8/A gnd MUX2X1_9/S vdd BUFX4
XNAND2X1_378 NAND2X1_378/A INVX1_240/Y gnd INVX1_241/A vdd NAND2X1
XINVX2_85 bloque_bytes[34] gnd INVX2_85/Y vdd INVX2
XNOR2X1_297 BUFX2_218/A XOR2X1_241/Y gnd NOR2X1_297/Y vdd NOR2X1
XNOR2X1_64 OR2X2_37/A OR2X2_37/B gnd NOR2X1_64/Y vdd NOR2X1
XNAND3X1_210 INVX1_135/Y AOI21X1_148/A OR2X2_92/Y gnd NAND3X1_211/B vdd NAND3X1
XBUFX2_211 INVX1_346/A gnd BUFX2_211/Y vdd BUFX2
XXNOR2X1_249 NOR2X1_444/B XOR2X1_296/Y gnd XNOR2X1_249/Y vdd XNOR2X1
XOAI21X1_228 NOR2X1_147/A INVX1_152/Y INVX1_153/Y gnd NAND2X1_266/B vdd OAI21X1
XNAND2X1_342 OAI21X1_298/Y NAND2X1_342/B gnd XOR2X1_178/A vdd NAND2X1
XINVX2_49 INVX2_49/A gnd INVX2_49/Y vdd INVX2
XNOR2X1_261 BUFX2_206/A XOR2X1_214/Y gnd NOR2X1_261/Y vdd NOR2X1
XINVX1_590 INVX1_590/A gnd INVX1_590/Y vdd INVX1
XNAND3X1_174 INVX1_113/Y NAND3X1_176/B OR2X2_76/Y gnd NAND3X1_174/Y vdd NAND3X1
XNOR2X1_28 gnd OR2X2_9/B gnd NOR2X1_28/Y vdd NOR2X1
XXNOR2X1_213 bloque_bytes[55] bloque_bytes[15] gnd XNOR2X1_213/Y vdd XNOR2X1
XBUFX2_175 INVX1_194/A gnd BUFX2_175/Y vdd BUFX2
XFILL_31_8_0 gnd vdd FILL
XINVX2_13 INVX2_13/A gnd INVX2_13/Y vdd INVX2
XNOR2X1_225 BUFX2_190/A XOR2X1_187/Y gnd NOR2X1_225/Y vdd NOR2X1
XOAI21X1_192 INVX2_43/Y AND2X2_66/B OR2X2_86/Y gnd OAI21X1_193/B vdd OAI21X1
XNAND2X1_306 gnd AND2X2_92/B gnd NAND2X1_306/Y vdd NAND2X1
XCLKBUF1_16 BUFX4_7/Y gnd CLKBUF1_16/Y vdd CLKBUF1
XNAND3X1_138 INVX1_91/Y AOI21X1_100/A OR2X2_60/Y gnd NAND3X1_138/Y vdd NAND3X1
XBUFX2_139 gnd gnd BUFX2_139/Y vdd BUFX2
XINVX1_554 INVX1_554/A gnd INVX1_554/Y vdd INVX1
XOAI21X1_156 AND2X2_55/Y NOR2X1_104/Y INVX1_103/Y gnd OAI21X1_156/Y vdd OAI21X1
XXNOR2X1_99 XNOR2X1_99/A INVX2_43/Y gnd XOR2X1_117/A vdd XNOR2X1
XXNOR2X1_177 NOR2X1_269/Y NOR2X1_268/Y gnd XOR2X1_238/A vdd XNOR2X1
XNOR2X1_189 BUFX2_178/A NOR2X1_189/B gnd NOR2X1_189/Y vdd NOR2X1
XNAND2X1_270 gnd AND2X2_81/B gnd AOI21X1_167/A vdd NAND2X1
XDFFPOSX1_336 INVX1_391/A CLKBUF1_19/Y NAND2X1_682/Y gnd vdd DFFPOSX1
XNOR3X1_69 NOR3X1_69/A NOR3X1_69/B NOR3X1_69/C gnd NOR3X1_69/Y vdd NOR3X1
XINVX1_518 bloque_bytes[60] gnd INVX1_518/Y vdd INVX1
XNAND3X1_102 INVX1_69/Y AOI21X1_76/A OR2X2_44/Y gnd NAND3X1_102/Y vdd NAND3X1
XXNOR2X1_141 XNOR2X1_141/A NAND3X1_276/C gnd BUFX2_180/A vdd XNOR2X1
XBUFX2_103 gnd gnd BUFX2_103/Y vdd BUFX2
XOAI21X1_120 XNOR2X1_62/A AOI21X1_89/C AND2X2_42/B gnd XNOR2X1_63/A vdd OAI21X1
XXNOR2X1_63 XNOR2X1_63/A INVX2_31/Y gnd XOR2X1_77/A vdd XNOR2X1
XNOR2X1_153 NOR2X1_153/A NOR3X1_52/Y gnd NOR2X1_153/Y vdd NOR2X1
XNOR3X1_33 INVX1_55/Y NOR2X1_58/Y AND2X2_26/Y gnd NOR3X1_33/Y vdd NOR3X1
XFILL_15_1_0 gnd vdd FILL
XNAND2X1_234 INVX1_140/A OAI21X1_198/Y gnd OAI21X1_199/A vdd NAND2X1
XINVX1_482 INVX1_482/A gnd INVX1_482/Y vdd INVX1
XFILL_13_3_1 gnd vdd FILL
XDFFPOSX1_300 INVX1_303/A CLKBUF1_34/Y AOI21X1_388/C gnd vdd DFFPOSX1
XXNOR2X1_27 OAI21X1_52/Y INVX2_19/Y gnd XOR2X1_37/A vdd XNOR2X1
XXOR2X1_297 bloque_bytes[54] bloque_bytes[14] gnd INVX1_549/A vdd XOR2X1
XXNOR2X1_105 AOI21X1_153/C XNOR2X1_105/B gnd BUFX2_164/A vdd XNOR2X1
XNOR2X1_117 NOR2X1_117/A NOR2X1_117/B gnd XOR2X1_108/A vdd NOR2X1
XNAND2X1_198 OR2X2_76/A OR2X2_76/B gnd NAND3X1_176/B vdd NAND2X1
XDFFPOSX1_264 INVX1_220/A CLKBUF1_11/Y INVX1_526/Y gnd vdd DFFPOSX1
XOR2X2_85 OR2X2_85/A OR2X2_85/B gnd OR2X2_85/Y vdd OR2X2
XOAI21X1_625 OR2X2_140/A INVX1_549/A INVX1_575/A gnd NAND2X1_688/A vdd OAI21X1
XAOI21X1_96 AOI21X1_96/A AOI21X1_96/B AOI21X1_96/C gnd NOR2X1_91/A vdd AOI21X1
XINVX1_446 INVX1_446/A gnd INVX1_446/Y vdd INVX1
XXOR2X1_261 INVX1_422/A gnd gnd NOR2X1_322/B vdd XOR2X1
XBUFX2_99 gnd gnd BUFX2_99/Y vdd BUFX2
XAOI21X1_398 NOR3X1_97/Y NOR2X1_450/Y NOR2X1_448/A gnd OAI21X1_644/C vdd AOI21X1
XNAND2X1_162 AND2X2_48/B AND2X2_48/A gnd AOI21X1_101/C vdd NAND2X1
XXOR2X1_1 target[6] XOR2X1_1/B gnd XOR2X1_1/Y vdd XOR2X1
XOR2X2_49 gnd OR2X2_49/B gnd OR2X2_49/Y vdd OR2X2
XAOI21X1_60 NAND3X1_85/A AOI21X1_60/B NAND3X1_79/Y gnd NOR2X1_61/A vdd AOI21X1
XDFFPOSX1_228 INVX1_155/A CLKBUF1_13/Y INVX1_537/A gnd vdd DFFPOSX1
XINVX1_410 INVX1_410/A gnd INVX1_410/Y vdd INVX1
XOAI21X1_589 bloque_bytes[64] INVX1_493/Y OAI21X1_589/C gnd OR2X2_142/A vdd OAI21X1
XNAND2X1_703 NAND2X1_703/A NAND2X1_703/B gnd NAND2X1_703/Y vdd NAND2X1
XXOR2X1_225 INVX1_346/A gnd gnd XOR2X1_225/Y vdd XOR2X1
XFILL_10_8_1 gnd vdd FILL
XFILL_12_6_0 gnd vdd FILL
XBUFX2_63 gnd gnd BUFX2_63/Y vdd BUFX2
XNAND3X1_535 NAND3X1_535/A NAND3X1_533/A NAND3X1_535/C gnd NAND2X1_708/A vdd NAND3X1
XFILL_9_3 gnd vdd FILL
XNAND2X1_126 AOI21X1_77/A AOI21X1_77/B gnd INVX2_28/A vdd NAND2X1
XAOI21X1_362 INVX1_506/Y bloque_bytes[16] AOI21X1_362/C gnd INVX1_508/A vdd AOI21X1
XOR2X2_13 XOR2X1_3/A OR2X2_13/B gnd OR2X2_13/Y vdd OR2X2
XAOI21X1_24 AOI21X1_24/A AOI21X1_24/B NAND3X1_26/C gnd NOR2X1_31/A vdd AOI21X1
XDFFPOSX1_192 INVX1_105/A CLKBUF1_38/Y bloque_bytes[22] gnd vdd DFFPOSX1
XOAI21X1_553 gnd XOR2X1_282/Y INVX1_457/A gnd INVX1_459/A vdd OAI21X1
XINVX1_374 INVX1_374/A gnd INVX1_374/Y vdd INVX1
XDFFPOSX1_4 BUFX2_3/A CLKBUF1_35/Y NOR3X1_3/Y gnd vdd DFFPOSX1
XNAND2X1_667 INVX1_562/Y NAND2X1_653/B gnd AOI21X1_382/A vdd NAND2X1
XFILL_22_1_0 gnd vdd FILL
XBUFX2_27 gnd gnd BUFX2_27/Y vdd BUFX2
XXOR2X1_189 BUFX2_191/A gnd gnd XOR2X1_189/Y vdd XOR2X1