*SPICE netlist created from BLIF module modulo_rendimiento by blif2BSpice
.include /usr/share/qflow/tech/osu018/osu018_stdcells.sp
.subckt modulo_rendimiento vdd gnd inicio bloque_bytes[0] bloque_bytes[1] bloque_bytes[2] bloque_bytes[3] bloque_bytes[4] bloque_bytes[5] bloque_bytes[6] bloque_bytes[7] bloque_bytes[8] bloque_bytes[9] bloque_bytes[10] bloque_bytes[11] bloque_bytes[12] bloque_bytes[13] bloque_bytes[14] bloque_bytes[15] bloque_bytes[16] bloque_bytes[17] bloque_bytes[18] bloque_bytes[19] bloque_bytes[20] bloque_bytes[21] bloque_bytes[22] bloque_bytes[23] bloque_bytes[24] bloque_bytes[25] bloque_bytes[26] bloque_bytes[27] bloque_bytes[28] bloque_bytes[29] bloque_bytes[30] bloque_bytes[31] bloque_bytes[32] bloque_bytes[33] bloque_bytes[34] bloque_bytes[35] bloque_bytes[36] bloque_bytes[37] bloque_bytes[38] bloque_bytes[39] bloque_bytes[40] bloque_bytes[41] bloque_bytes[42] bloque_bytes[43] bloque_bytes[44] bloque_bytes[45] bloque_bytes[46] bloque_bytes[47] bloque_bytes[48] bloque_bytes[49] bloque_bytes[50] bloque_bytes[51] bloque_bytes[52] bloque_bytes[53] bloque_bytes[54] bloque_bytes[55] bloque_bytes[56] bloque_bytes[57] bloque_bytes[58] bloque_bytes[59] bloque_bytes[60] bloque_bytes[61] bloque_bytes[62] bloque_bytes[63] bloque_bytes[64] bloque_bytes[65] bloque_bytes[66] bloque_bytes[67] bloque_bytes[68] bloque_bytes[69] bloque_bytes[70] bloque_bytes[71] bloque_bytes[72] bloque_bytes[73] bloque_bytes[74] bloque_bytes[75] bloque_bytes[76] bloque_bytes[77] bloque_bytes[78] bloque_bytes[79] bloque_bytes[80] bloque_bytes[81] bloque_bytes[82] bloque_bytes[83] bloque_bytes[84] bloque_bytes[85] bloque_bytes[86] bloque_bytes[87] bloque_bytes[88] bloque_bytes[89] bloque_bytes[90] bloque_bytes[91] bloque_bytes[92] bloque_bytes[93] bloque_bytes[94] bloque_bytes[95] clk reset target[0] target[1] target[2] target[3] target[4] target[5] target[6] target[7] terminado hash[0] hash[1] hash[2] hash[3] hash[4] hash[5] hash[6] hash[7] hash[8] hash[9] hash[10] hash[11] hash[12] hash[13] hash[14] hash[15] hash[16] hash[17] hash[18] hash[19] hash[20] hash[21] hash[22] hash[23] 
XBUFX4_1 vdd gnd _127_ _127__bF$buf4 BUFX4
XBUFX4_2 vdd gnd _127_ _127__bF$buf3 BUFX4
XBUFX4_3 vdd gnd _127_ _127__bF$buf2 BUFX4
XBUFX4_4 vdd gnd _127_ _127__bF$buf1 BUFX4
XBUFX4_5 vdd gnd _127_ _127__bF$buf0 BUFX4
XCLKBUF1_1 clk vdd gnd clk_bF$buf9 CLKBUF1
XCLKBUF1_2 clk vdd gnd clk_bF$buf8 CLKBUF1
XCLKBUF1_3 clk vdd gnd clk_bF$buf7 CLKBUF1
XCLKBUF1_4 clk vdd gnd clk_bF$buf6 CLKBUF1
XCLKBUF1_5 clk vdd gnd clk_bF$buf5 CLKBUF1
XCLKBUF1_6 clk vdd gnd clk_bF$buf4 CLKBUF1
XCLKBUF1_7 clk vdd gnd clk_bF$buf3 CLKBUF1
XCLKBUF1_8 clk vdd gnd clk_bF$buf2 CLKBUF1
XCLKBUF1_9 clk vdd gnd clk_bF$buf1 CLKBUF1
XCLKBUF1_10 clk vdd gnd clk_bF$buf0 CLKBUF1
XBUFX4_6 vdd gnd _3299_ _3299__bF$buf4 BUFX4
XBUFX4_7 vdd gnd _3299_ _3299__bF$buf3 BUFX4
XBUFX4_8 vdd gnd _3299_ _3299__bF$buf2 BUFX4
XBUFX4_9 vdd gnd _3299_ _3299__bF$buf1 BUFX4
XBUFX4_10 vdd gnd _3299_ _3299__bF$buf0 BUFX4
XBUFX4_11 vdd gnd _85_ _85__bF$buf4 BUFX4
XBUFX4_12 vdd gnd _85_ _85__bF$buf3 BUFX4
XBUFX4_13 vdd gnd _85_ _85__bF$buf2 BUFX4
XBUFX4_14 vdd gnd _85_ _85__bF$buf1 BUFX4
XBUFX4_15 vdd gnd _85_ _85__bF$buf0 BUFX4
XBUFX4_16 vdd gnd _110_ _110__bF$buf4 BUFX4
XBUFX4_17 vdd gnd _110_ _110__bF$buf3 BUFX4
XBUFX4_18 vdd gnd _110_ _110__bF$buf2 BUFX4
XBUFX4_19 vdd gnd _110_ _110__bF$buf1 BUFX4
XBUFX4_20 vdd gnd _110_ _110__bF$buf0 BUFX4
XBUFX4_21 vdd gnd reset reset_bF$buf5 BUFX4
XBUFX4_22 vdd gnd reset reset_bF$buf4 BUFX4
XBUFX4_23 vdd gnd reset reset_bF$buf3 BUFX4
XBUFX4_24 vdd gnd reset reset_bF$buf2 BUFX4
XBUFX4_25 vdd gnd reset reset_bF$buf1 BUFX4
XBUFX4_26 vdd gnd reset reset_bF$buf0 BUFX4
XINVX8_1 vdd gnd reset_bF$buf1 _110_ INVX8
XNOR2X1_1 vdd micro_ucr_hash1.hash[15] gnd _111_ target[7] NOR2X1
XNAND2X1_1 vdd _112_ gnd target[7] micro_ucr_hash1.hash[15] NAND2X1
XINVX1_1 _112_ _113_ vdd gnd INVX1
XXNOR2X1_1 target[6] micro_ucr_hash1.hash[14] gnd vdd _114_ XNOR2X1
XOAI21X1_1 gnd vdd _111_ _113_ _115_ _114_ OAI21X1
XINVX2_1 vdd gnd _116_ micro_ucr_hash1.hash[13] INVX2
XINVX2_2 vdd gnd _117_ micro_ucr_hash1.hash[12] INVX2
XAOI22X1_1 gnd vdd target[4] _117_ _118_ _116_ target[5] AOI22X1
XINVX4_1 vdd gnd _119_ target[5] INVX4
XINVX2_3 vdd gnd _120_ target[4] INVX2
XAOI22X1_2 gnd vdd _120_ micro_ucr_hash1.hash[12] _121_ _119_ micro_ucr_hash1.hash[13] AOI22X1
XNAND2X1_2 vdd _122_ gnd _118_ _121_ NAND2X1
XNOR2X1_2 vdd _115_ gnd _123_ _122_ NOR2X1
XXNOR2X1_2 target[3] micro_ucr_hash1.hash[11] gnd vdd _124_ XNOR2X1
XXNOR2X1_3 target[2] micro_ucr_hash1.hash[10] gnd vdd _125_ XNOR2X1
XNAND2X1_3 vdd _2_ gnd _124_ _125_ NAND2X1
XINVX2_4 vdd gnd _3_ target[1] INVX2
XNOR2X1_3 vdd _3_ gnd _4_ micro_ucr_hash1.hash[9] NOR2X1
XINVX2_5 vdd gnd _5_ target[0] INVX2
XNAND2X1_4 vdd _6_ gnd micro_ucr_hash1.hash[8] _5_ NAND2X1
XNAND2X1_5 vdd _7_ gnd micro_ucr_hash1.hash[9] _3_ NAND2X1
XAOI21X1_1 gnd vdd _6_ _7_ _8_ _4_ AOI21X1
XINVX2_6 vdd gnd _9_ target[3] INVX2
XNOR2X1_4 vdd _9_ gnd _10_ micro_ucr_hash1.hash[11] NOR2X1
XNAND2X1_6 vdd _11_ gnd micro_ucr_hash1.hash[11] _9_ NAND2X1
XINVX2_7 vdd gnd _12_ target[2] INVX2
XNOR2X1_5 vdd _12_ gnd _13_ micro_ucr_hash1.hash[10] NOR2X1
XAOI21X1_2 gnd vdd _11_ _13_ _14_ _10_ AOI21X1
XOAI21X1_2 gnd vdd _2_ _8_ _15_ _14_ OAI21X1
XNAND2X1_7 vdd _16_ gnd _123_ _15_ NAND2X1
XINVX1_2 _111_ _17_ vdd gnd INVX1
XXOR2X1_1 _18_ vdd micro_ucr_hash1.hash[14] target[6] gnd XOR2X1
XAOI21X1_3 gnd vdd _17_ _112_ _19_ _18_ AOI21X1
XNAND2X1_8 vdd _20_ gnd target[5] _116_ NAND2X1
XNAND2X1_9 vdd _21_ gnd target[4] _117_ NAND2X1
XNOR2X1_6 vdd _116_ gnd _22_ target[5] NOR2X1
XOAI21X1_3 gnd vdd _22_ _21_ _23_ _20_ OAI21X1
XINVX2_8 vdd gnd _24_ target[7] INVX2
XINVX2_9 vdd gnd _25_ target[6] INVX2
XNOR2X1_7 vdd _25_ gnd _26_ micro_ucr_hash1.hash[14] NOR2X1
XOAI21X1_4 gnd vdd _113_ _111_ _27_ _26_ OAI21X1
XOAI21X1_5 gnd vdd _24_ micro_ucr_hash1.hash[15] _28_ _27_ OAI21X1
XAOI21X1_4 gnd vdd _23_ _19_ _29_ _28_ AOI21X1
XOAI22X1_1 gnd vdd micro_ucr_hash1.hash[12] _120_ _119_ micro_ucr_hash1.hash[13] _30_ OAI22X1
XOAI22X1_2 gnd vdd _117_ target[4] _116_ target[5] _31_ OAI22X1
XNOR2X1_8 vdd _31_ gnd _32_ _30_ NOR2X1
XNAND2X1_10 vdd _33_ gnd _32_ _19_ NAND2X1
XINVX1_3 micro_ucr_hash1.hash[9] _34_ vdd gnd INVX1
XINVX1_4 micro_ucr_hash1.hash[8] _35_ vdd gnd INVX1
XOAI22X1_3 gnd vdd _35_ target[0] _34_ target[1] _36_ OAI22X1
XOAI22X1_4 gnd vdd micro_ucr_hash1.hash[8] _5_ _3_ micro_ucr_hash1.hash[9] _37_ OAI22X1
XNOR2X1_9 vdd _37_ gnd _38_ _36_ NOR2X1
XNAND3X1_1 _125_ vdd gnd _124_ _38_ _39_ NAND3X1
XNOR2X1_10 vdd _39_ gnd _40_ _33_ NOR2X1
XAOI21X1_5 gnd vdd _29_ _16_ _41_ _40_ AOI21X1
XINVX1_5 micro_ucr_hash1.hash[23] _42_ vdd gnd INVX1
XINVX1_6 micro_ucr_hash1.hash[22] _43_ vdd gnd INVX1
XAOI22X1_3 gnd vdd _43_ target[6] _44_ _42_ target[7] AOI22X1
XNAND2X1_11 vdd _45_ gnd micro_ucr_hash1.hash[23] _24_ NAND2X1
XNAND2X1_12 vdd _46_ gnd micro_ucr_hash1.hash[22] _25_ NAND2X1
XNAND3X1_2 _46_ vdd gnd _45_ _44_ _47_ NAND3X1
XINVX1_7 micro_ucr_hash1.hash[21] _48_ vdd gnd INVX1
XINVX1_8 micro_ucr_hash1.hash[20] _49_ vdd gnd INVX1
XAOI22X1_4 gnd vdd _49_ target[4] _50_ _48_ target[5] AOI22X1
XNAND2X1_13 vdd _51_ gnd micro_ucr_hash1.hash[21] _119_ NAND2X1
XNAND2X1_14 vdd _52_ gnd micro_ucr_hash1.hash[20] _120_ NAND2X1
XNAND3X1_3 _52_ vdd gnd _51_ _50_ _53_ NAND3X1
XNOR2X1_11 vdd _53_ gnd _54_ _47_ NOR2X1
XINVX2_10 vdd gnd _55_ micro_ucr_hash1.hash[19] INVX2
XINVX1_9 micro_ucr_hash1.hash[18] _56_ vdd gnd INVX1
XAOI22X1_5 gnd vdd _56_ target[2] _57_ _55_ target[3] AOI22X1
XAOI22X1_6 gnd vdd micro_ucr_hash1.hash[18] _12_ _58_ _9_ micro_ucr_hash1.hash[19] AOI22X1
XNAND2X1_15 vdd _59_ gnd _57_ _58_ NAND2X1
XNOR2X1_12 vdd _3_ gnd _60_ micro_ucr_hash1.hash[17] NOR2X1
XNAND2X1_16 vdd _61_ gnd micro_ucr_hash1.hash[16] _5_ NAND2X1
XNAND2X1_17 vdd _62_ gnd micro_ucr_hash1.hash[17] _3_ NAND2X1
XAOI21X1_6 gnd vdd _61_ _62_ _63_ _60_ AOI21X1
XOAI22X1_5 gnd vdd _12_ micro_ucr_hash1.hash[18] _9_ micro_ucr_hash1.hash[19] _64_ OAI22X1
XOAI21X1_6 gnd vdd _55_ target[3] _65_ _64_ OAI21X1
XOAI21X1_7 gnd vdd _59_ _63_ _66_ _65_ OAI21X1
XNAND2X1_18 vdd _67_ gnd _66_ _54_ NAND2X1
XOAI22X1_6 gnd vdd _25_ micro_ucr_hash1.hash[22] _24_ micro_ucr_hash1.hash[23] _68_ OAI22X1
XOAI22X1_7 gnd vdd target[6] _43_ _42_ target[7] _69_ OAI22X1
XNOR2X1_13 vdd _69_ gnd _70_ _68_ NOR2X1
XAOI21X1_7 gnd vdd micro_ucr_hash1.hash[21] _119_ _71_ _50_ AOI21X1
XAOI22X1_7 gnd vdd _70_ _71_ _72_ _68_ _45_ AOI22X1
XOAI22X1_8 gnd vdd _120_ micro_ucr_hash1.hash[20] _119_ micro_ucr_hash1.hash[21] _73_ OAI22X1
XOAI22X1_9 gnd vdd target[4] _49_ _48_ target[5] _74_ OAI22X1
XNOR2X1_14 vdd _74_ gnd _75_ _73_ NOR2X1
XNAND2X1_19 vdd _76_ gnd _70_ _75_ NAND2X1
XOAI22X1_10 gnd vdd target[2] _56_ _55_ target[3] _77_ OAI22X1
XNOR2X1_15 vdd _77_ gnd _78_ _64_ NOR2X1
XAND2X2_1 vdd gnd _61_ _62_ _79_ AND2X2
XINVX1_10 micro_ucr_hash1.hash[16] _80_ vdd gnd INVX1
XAOI21X1_8 gnd vdd _80_ target[0] _81_ _60_ AOI21X1
XNAND3X1_4 _81_ vdd gnd _79_ _78_ _82_ NAND3X1
XNOR2X1_16 vdd _82_ gnd _83_ _76_ NOR2X1
XAOI21X1_9 gnd vdd _67_ _72_ _84_ _83_ AOI21X1
XAOI21X1_10 gnd vdd _84_ _41_ _85_ _127__bF$buf4 AOI21X1
XNOR2X1_17 vdd _85__bF$buf2 gnd _1_ _110__bF$buf1 NOR2X1
XMUX2X1_1 _127__bF$buf3 vdd gnd _86_ _126_[0] micro_ucr_hash1.hash[0] MUX2X1
XNOR3X1_1 vdd gnd _86_ _85__bF$buf3 _110__bF$buf4 _0_[0] NOR3X1
XMUX2X1_2 _127__bF$buf3 vdd gnd _87_ _126_[1] micro_ucr_hash1.hash[1] MUX2X1
XNOR3X1_2 vdd gnd _87_ _85__bF$buf3 _110__bF$buf4 _0_[1] NOR3X1
XMUX2X1_3 _127__bF$buf3 vdd gnd _88_ _126_[2] micro_ucr_hash1.hash[2] MUX2X1
XNOR3X1_3 vdd gnd _88_ _85__bF$buf3 _110__bF$buf4 _0_[2] NOR3X1
XMUX2X1_4 _127__bF$buf3 vdd gnd _89_ _126_[3] micro_ucr_hash1.hash[3] MUX2X1
XNOR3X1_4 vdd gnd _89_ _85__bF$buf0 _110__bF$buf3 _0_[3] NOR3X1
XMUX2X1_5 _127__bF$buf3 vdd gnd _90_ _126_[4] micro_ucr_hash1.hash[4] MUX2X1
XNOR3X1_5 vdd gnd _90_ _85__bF$buf3 _110__bF$buf4 _0_[4] NOR3X1
XMUX2X1_6 _127__bF$buf2 vdd gnd _91_ _126_[5] micro_ucr_hash1.hash[5] MUX2X1
XNOR3X1_6 vdd gnd _91_ _85__bF$buf0 _110__bF$buf3 _0_[5] NOR3X1
XMUX2X1_7 _127__bF$buf3 vdd gnd _92_ _126_[6] micro_ucr_hash1.hash[6] MUX2X1
XNOR3X1_7 vdd gnd _92_ _85__bF$buf3 _110__bF$buf4 _0_[6] NOR3X1
XMUX2X1_8 _127__bF$buf2 vdd gnd _93_ _126_[7] micro_ucr_hash1.hash[7] MUX2X1
XNOR3X1_8 vdd gnd _93_ _85__bF$buf0 _110__bF$buf3 _0_[7] NOR3X1
XMUX2X1_9 _127__bF$buf1 vdd gnd _94_ _126_[8] micro_ucr_hash1.hash[8] MUX2X1
XNOR3X1_9 vdd gnd _94_ _85__bF$buf4 _110__bF$buf0 _0_[8] NOR3X1
XMUX2X1_10 _127__bF$buf1 vdd gnd _95_ _126_[9] micro_ucr_hash1.hash[9] MUX2X1
XNOR3X1_10 vdd gnd _95_ _85__bF$buf4 _110__bF$buf0 _0_[9] NOR3X1
XMUX2X1_11 _127__bF$buf1 vdd gnd _96_ _126_[10] micro_ucr_hash1.hash[10] MUX2X1
XNOR3X1_11 vdd gnd _96_ _85__bF$buf4 _110__bF$buf0 _0_[10] NOR3X1
XMUX2X1_12 _127__bF$buf4 vdd gnd _97_ _126_[11] micro_ucr_hash1.hash[11] MUX2X1
XNOR3X1_12 vdd gnd _97_ _85__bF$buf2 _110__bF$buf1 _0_[11] NOR3X1
XMUX2X1_13 _127__bF$buf0 vdd gnd _98_ _126_[12] micro_ucr_hash1.hash[12] MUX2X1
XNOR3X1_13 vdd gnd _98_ _85__bF$buf2 _110__bF$buf1 _0_[12] NOR3X1
XMUX2X1_14 _127__bF$buf0 vdd gnd _99_ _126_[13] micro_ucr_hash1.hash[13] MUX2X1
XNOR3X1_14 vdd gnd _99_ _85__bF$buf2 _110__bF$buf1 _0_[13] NOR3X1
XMUX2X1_15 _127__bF$buf4 vdd gnd _100_ _126_[14] micro_ucr_hash1.hash[14] MUX2X1
XNOR3X1_15 vdd gnd _100_ _85__bF$buf2 _110__bF$buf1 _0_[14] NOR3X1
XMUX2X1_16 _127__bF$buf1 vdd gnd _101_ _126_[15] micro_ucr_hash1.hash[15] MUX2X1
XNOR3X1_16 vdd gnd _101_ _85__bF$buf4 _110__bF$buf0 _0_[15] NOR3X1
XMUX2X1_17 _127__bF$buf1 vdd gnd _102_ _126_[16] micro_ucr_hash1.hash[16] MUX2X1
XNOR3X1_17 vdd gnd _102_ _85__bF$buf4 _110__bF$buf0 _0_[16] NOR3X1
XMUX2X1_18 _127__bF$buf4 vdd gnd _103_ _126_[17] micro_ucr_hash1.hash[17] MUX2X1
XNOR3X1_18 vdd gnd _103_ _85__bF$buf1 _110__bF$buf2 _0_[17] NOR3X1
XMUX2X1_19 _127__bF$buf4 vdd gnd _104_ _126_[18] micro_ucr_hash1.hash[18] MUX2X1
XNOR3X1_19 vdd gnd _104_ _85__bF$buf1 _110__bF$buf2 _0_[18] NOR3X1
XMUX2X1_20 _127__bF$buf2 vdd gnd _105_ _126_[19] micro_ucr_hash1.hash[19] MUX2X1
XNOR3X1_20 vdd gnd _105_ _85__bF$buf1 _110__bF$buf2 _0_[19] NOR3X1
XMUX2X1_21 _127__bF$buf2 vdd gnd _106_ _126_[20] micro_ucr_hash1.hash[20] MUX2X1
XNOR3X1_21 vdd gnd _106_ _85__bF$buf1 _110__bF$buf2 _0_[20] NOR3X1
XMUX2X1_22 _127__bF$buf4 vdd gnd _107_ _126_[21] micro_ucr_hash1.hash[21] MUX2X1
XNOR3X1_22 vdd gnd _107_ _85__bF$buf1 _110__bF$buf2 _0_[21] NOR3X1
XMUX2X1_23 _127__bF$buf2 vdd gnd _108_ _126_[22] micro_ucr_hash1.hash[22] MUX2X1
XNOR3X1_23 vdd gnd _108_ _85__bF$buf0 _110__bF$buf3 _0_[22] NOR3X1
XMUX2X1_24 _127__bF$buf2 vdd gnd _109_ _126_[23] micro_ucr_hash1.hash[23] MUX2X1
XNOR3X1_24 vdd gnd _109_ _85__bF$buf0 _110__bF$buf3 _0_[23] NOR3X1
XBUFX2_1 vdd gnd _126_[0] hash[0] BUFX2
XBUFX2_2 vdd gnd _126_[1] hash[1] BUFX2
XBUFX2_3 vdd gnd _126_[2] hash[2] BUFX2
XBUFX2_4 vdd gnd _126_[3] hash[3] BUFX2
XBUFX2_5 vdd gnd _126_[4] hash[4] BUFX2
XBUFX2_6 vdd gnd _126_[5] hash[5] BUFX2
XBUFX2_7 vdd gnd _126_[6] hash[6] BUFX2
XBUFX2_8 vdd gnd _126_[7] hash[7] BUFX2
XBUFX2_9 vdd gnd _126_[8] hash[8] BUFX2
XBUFX2_10 vdd gnd _126_[9] hash[9] BUFX2
XBUFX2_11 vdd gnd _126_[10] hash[10] BUFX2
XBUFX2_12 vdd gnd _126_[11] hash[11] BUFX2
XBUFX2_13 vdd gnd _126_[12] hash[12] BUFX2
XBUFX2_14 vdd gnd _126_[13] hash[13] BUFX2
XBUFX2_15 vdd gnd _126_[14] hash[14] BUFX2
XBUFX2_16 vdd gnd _126_[15] hash[15] BUFX2
XBUFX2_17 vdd gnd _126_[16] hash[16] BUFX2
XBUFX2_18 vdd gnd _126_[17] hash[17] BUFX2
XBUFX2_19 vdd gnd _126_[18] hash[18] BUFX2
XBUFX2_20 vdd gnd _126_[19] hash[19] BUFX2
XBUFX2_21 vdd gnd _126_[20] hash[20] BUFX2
XBUFX2_22 vdd gnd _126_[21] hash[21] BUFX2
XBUFX2_23 vdd gnd _126_[22] hash[22] BUFX2
XBUFX2_24 vdd gnd _126_[23] hash[23] BUFX2
XBUFX2_25 vdd gnd _127__bF$buf1 terminado BUFX2
XDFFPOSX1_1 vdd _1_ gnd _127_ clk_bF$buf0 DFFPOSX1
XDFFPOSX1_2 vdd _0_[0] gnd _126_[0] clk_bF$buf6 DFFPOSX1
XDFFPOSX1_3 vdd _0_[1] gnd _126_[1] clk_bF$buf8 DFFPOSX1
XDFFPOSX1_4 vdd _0_[2] gnd _126_[2] clk_bF$buf8 DFFPOSX1
XDFFPOSX1_5 vdd _0_[3] gnd _126_[3] clk_bF$buf8 DFFPOSX1
XDFFPOSX1_6 vdd _0_[4] gnd _126_[4] clk_bF$buf6 DFFPOSX1
XDFFPOSX1_7 vdd _0_[5] gnd _126_[5] clk_bF$buf6 DFFPOSX1
XDFFPOSX1_8 vdd _0_[6] gnd _126_[6] clk_bF$buf6 DFFPOSX1
XDFFPOSX1_9 vdd _0_[7] gnd _126_[7] clk_bF$buf8 DFFPOSX1
XDFFPOSX1_10 vdd _0_[8] gnd _126_[8] clk_bF$buf2 DFFPOSX1
XDFFPOSX1_11 vdd _0_[9] gnd _126_[9] clk_bF$buf2 DFFPOSX1
XDFFPOSX1_12 vdd _0_[10] gnd _126_[10] clk_bF$buf2 DFFPOSX1
XDFFPOSX1_13 vdd _0_[11] gnd _126_[11] clk_bF$buf2 DFFPOSX1
XDFFPOSX1_14 vdd _0_[12] gnd _126_[12] clk_bF$buf4 DFFPOSX1
XDFFPOSX1_15 vdd _0_[13] gnd _126_[13] clk_bF$buf0 DFFPOSX1
XDFFPOSX1_16 vdd _0_[14] gnd _126_[14] clk_bF$buf2 DFFPOSX1
XDFFPOSX1_17 vdd _0_[15] gnd _126_[15] clk_bF$buf2 DFFPOSX1
XDFFPOSX1_18 vdd _0_[16] gnd _126_[16] clk_bF$buf2 DFFPOSX1
XDFFPOSX1_19 vdd _0_[17] gnd _126_[17] clk_bF$buf0 DFFPOSX1
XDFFPOSX1_20 vdd _0_[18] gnd _126_[18] clk_bF$buf0 DFFPOSX1
XDFFPOSX1_21 vdd _0_[19] gnd _126_[19] clk_bF$buf0 DFFPOSX1
XDFFPOSX1_22 vdd _0_[20] gnd _126_[20] clk_bF$buf0 DFFPOSX1
XDFFPOSX1_23 vdd _0_[21] gnd _126_[21] clk_bF$buf0 DFFPOSX1
XDFFPOSX1_24 vdd _0_[22] gnd _126_[22] clk_bF$buf0 DFFPOSX1
XDFFPOSX1_25 vdd _0_[23] gnd _126_[23] clk_bF$buf6 DFFPOSX1
XXOR2X1_2 micro_ucr_hash1.a[1][0] vdd gnd micro_ucr_hash1.b[1][4] gnd XOR2X1
XXOR2X1_3 micro_ucr_hash1.a[1][1] vdd gnd micro_ucr_hash1.b[1][5] gnd XOR2X1
XXOR2X1_4 micro_ucr_hash1.a[1][2] vdd gnd micro_ucr_hash1.b[1][6] gnd XOR2X1
XXOR2X1_5 micro_ucr_hash1.a[1][3] vdd gnd micro_ucr_hash1.b[1][7] gnd XOR2X1
XXOR2X1_6 micro_ucr_hash1.a[1][4] vdd gnd micro_ucr_hash1.c[0][4] gnd XOR2X1
XXOR2X1_7 micro_ucr_hash1.a[1][5] vdd vdd micro_ucr_hash1.c[0][5] gnd XOR2X1
XXOR2X1_8 micro_ucr_hash1.a[1][6] vdd vdd micro_ucr_hash1.c[0][6] gnd XOR2X1
XXOR2X1_9 micro_ucr_hash1.a[1][7] vdd vdd micro_ucr_hash1.c[0][7] gnd XOR2X1
XINVX2_11 vdd gnd _197_ bloque_bytes[80] INVX2
XXNOR2X1_4 gnd micro_ucr_hash1.a[0][0] gnd vdd _198_ XNOR2X1
XXNOR2X1_5 _198_ _197_ gnd vdd micro_ucr_hash1.b[2][4] XNOR2X1
XNAND2X1_20 vdd _199_ gnd _197_ _198_ NAND2X1
XOR2X2_1 _200_ micro_ucr_hash1.a[0][1] vdd gnd gnd OR2X2
XNAND2X1_21 vdd _201_ gnd gnd micro_ucr_hash1.a[0][1] NAND2X1
XNAND3X1_5 _201_ vdd gnd bloque_bytes[81] _200_ _202_ NAND3X1
XINVX1_11 bloque_bytes[81] _203_ vdd gnd INVX1
XNOR2X1_18 vdd micro_ucr_hash1.a[0][1] gnd _204_ gnd NOR2X1
XAND2X2_2 vdd gnd gnd micro_ucr_hash1.a[0][1] _205_ AND2X2
XOAI21X1_8 gnd vdd _205_ _204_ _206_ _203_ OAI21X1
XNAND2X1_22 vdd _207_ gnd _206_ _202_ NAND2X1
XXNOR2X1_6 _207_ _199_ gnd vdd micro_ucr_hash1.b[2][5] XNOR2X1
XNAND3X1_6 _206_ vdd gnd _202_ _199_ _208_ NAND3X1
XNOR3X1_25 vdd gnd _204_ _205_ _203_ _209_ NOR3X1
XINVX1_12 bloque_bytes[82] _210_ vdd gnd INVX1
XNOR2X1_19 vdd micro_ucr_hash1.a[0][2] gnd _211_ gnd NOR2X1
XAND2X2_3 vdd gnd gnd micro_ucr_hash1.a[0][2] _212_ AND2X2
XNOR3X1_26 vdd gnd _211_ _212_ _210_ _213_ NOR3X1
XOR2X2_2 _214_ micro_ucr_hash1.a[0][2] vdd gnd gnd OR2X2
XNAND2X1_23 vdd _215_ gnd gnd micro_ucr_hash1.a[0][2] NAND2X1
XAOI21X1_11 gnd vdd _215_ _214_ _216_ bloque_bytes[82] AOI21X1
XOAI21X1_9 gnd vdd _213_ _216_ _217_ _209_ OAI21X1
XNAND3X1_7 _215_ vdd gnd bloque_bytes[82] _214_ _218_ NAND3X1
XOAI21X1_10 gnd vdd _212_ _211_ _219_ _210_ OAI21X1
XNAND3X1_8 _202_ vdd gnd _219_ _218_ _220_ NAND3X1
XNAND2X1_24 vdd _221_ gnd _220_ _217_ NAND2X1
XXNOR2X1_7 _221_ _208_ gnd vdd micro_ucr_hash1.b[2][6] XNOR2X1
XNAND3X1_9 _219_ vdd gnd _218_ _209_ _222_ NAND3X1
XOAI21X1_11 gnd vdd _213_ _216_ _223_ _202_ OAI21X1
XNAND2X1_25 vdd _224_ gnd _222_ _223_ NAND2X1
XOAI21X1_12 gnd vdd _224_ _208_ _225_ _222_ OAI21X1
XINVX1_13 bloque_bytes[83] _226_ vdd gnd INVX1
XNOR2X1_20 vdd micro_ucr_hash1.a[0][3] gnd _227_ gnd NOR2X1
XAND2X2_4 vdd gnd gnd micro_ucr_hash1.a[0][3] _228_ AND2X2
XOAI21X1_13 gnd vdd _228_ _227_ _229_ _226_ OAI21X1
XOR2X2_3 _230_ micro_ucr_hash1.a[0][3] vdd gnd gnd OR2X2
XNAND2X1_26 vdd _231_ gnd gnd micro_ucr_hash1.a[0][3] NAND2X1
XNAND3X1_10 _231_ vdd gnd bloque_bytes[83] _230_ _232_ NAND3X1
XAOI21X1_12 gnd vdd _229_ _232_ _233_ _218_ AOI21X1
XNAND3X1_11 _231_ vdd gnd _226_ _230_ _234_ NAND3X1
XOAI21X1_14 gnd vdd _228_ _227_ _235_ bloque_bytes[83] OAI21X1
XAOI21X1_13 gnd vdd _235_ _234_ _236_ _213_ AOI21X1
XNOR2X1_21 vdd _236_ gnd _128_ _233_ NOR2X1
XXOR2X1_10 micro_ucr_hash1.b[2][7] vdd _128_ _225_ gnd XOR2X1
XINVX1_14 bloque_bytes[84] _129_ vdd gnd INVX1
XOR2X2_4 _130_ micro_ucr_hash1.a[0][4] vdd gnd gnd OR2X2
XNAND2X1_27 vdd _131_ gnd gnd micro_ucr_hash1.a[0][4] NAND2X1
XNAND3X1_12 _131_ vdd gnd _129_ _130_ _132_ NAND3X1
XNOR2X1_22 vdd micro_ucr_hash1.a[0][4] gnd _133_ gnd NOR2X1
XAND2X2_5 vdd gnd gnd micro_ucr_hash1.a[0][4] _134_ AND2X2
XOAI21X1_15 gnd vdd _134_ _133_ _135_ bloque_bytes[84] OAI21X1
XNAND3X1_13 _132_ vdd gnd _229_ _135_ _136_ NAND3X1
XAOI21X1_14 gnd vdd _231_ _230_ _137_ bloque_bytes[83] AOI21X1
XOAI21X1_16 gnd vdd _134_ _133_ _138_ _129_ OAI21X1
XNAND3X1_14 _131_ vdd gnd bloque_bytes[84] _130_ _139_ NAND3X1
XNAND3X1_15 _139_ vdd gnd _138_ _137_ _140_ NAND3X1
XAND2X2_6 vdd gnd _140_ _136_ _141_ AND2X2
XINVX2_12 vdd gnd _142_ _236_ INVX2
XNOR2X1_23 vdd _213_ gnd _143_ _216_ NOR2X1
XAOI21X1_15 gnd vdd _209_ _143_ _144_ _233_ AOI21X1
XOAI21X1_17 gnd vdd _224_ _208_ _145_ _144_ OAI21X1
XNAND2X1_28 vdd _146_ gnd _142_ _145_ NAND2X1
XXNOR2X1_8 _146_ _141_ gnd vdd micro_ucr_hash1.c[1][4] XNOR2X1
XNAND2X1_29 vdd _147_ gnd _136_ _140_ NAND2X1
XOAI21X1_18 gnd vdd _146_ _147_ _148_ _136_ OAI21X1
XINVX1_15 bloque_bytes[85] _149_ vdd gnd INVX1
XOR2X2_5 _150_ micro_ucr_hash1.a[0][5] vdd gnd vdd OR2X2
XNAND2X1_30 vdd _151_ gnd vdd micro_ucr_hash1.a[0][5] NAND2X1
XNAND3X1_16 _151_ vdd gnd _149_ _150_ _152_ NAND3X1
XNOR2X1_24 vdd micro_ucr_hash1.a[0][5] gnd _153_ vdd NOR2X1
XAND2X2_7 vdd gnd vdd micro_ucr_hash1.a[0][5] _154_ AND2X2
XOAI21X1_19 gnd vdd _154_ _153_ _155_ bloque_bytes[85] OAI21X1
XNAND3X1_17 _155_ vdd gnd _138_ _152_ _156_ NAND3X1
XAOI21X1_16 gnd vdd _131_ _130_ _157_ bloque_bytes[84] AOI21X1
XNAND3X1_18 _151_ vdd gnd bloque_bytes[85] _150_ _158_ NAND3X1
XOAI21X1_20 gnd vdd _154_ _153_ _159_ _149_ OAI21X1
XNAND3X1_19 _158_ vdd gnd _159_ _157_ _160_ NAND3X1
XNAND2X1_31 vdd _161_ gnd _156_ _160_ NAND2X1
XINVX2_13 vdd gnd _162_ _161_ INVX2
XXNOR2X1_9 _148_ _162_ gnd vdd micro_ucr_hash1.c[1][5] XNOR2X1
XAOI21X1_17 gnd vdd _156_ _160_ _163_ _147_ AOI21X1
XNAND3X1_20 _163_ vdd gnd _142_ _145_ _164_ NAND3X1
XNAND2X1_32 vdd _165_ gnd _159_ _158_ NAND2X1
XOR2X2_6 _166_ _157_ vdd gnd _165_ OR2X2
XINVX1_16 _166_ _167_ vdd gnd INVX1
XAOI21X1_18 gnd vdd _157_ _165_ _168_ _136_ AOI21X1
XNOR2X1_25 vdd _167_ gnd _169_ _168_ NOR2X1
XINVX1_17 bloque_bytes[86] _170_ vdd gnd INVX1
XXNOR2X1_10 vdd micro_ucr_hash1.a[0][6] gnd vdd _171_ XNOR2X1
XOR2X2_7 _172_ _170_ vdd gnd _171_ OR2X2
XNAND2X1_33 vdd _173_ gnd _170_ _171_ NAND2X1
XNAND2X1_34 vdd _174_ gnd _173_ _172_ NAND2X1
XOR2X2_8 _175_ _158_ vdd gnd _174_ OR2X2
XNAND2X1_35 vdd _176_ gnd _158_ _174_ NAND2X1
XNAND2X1_36 vdd _177_ gnd _176_ _175_ NAND2X1
XAOI21X1_19 gnd vdd _169_ _164_ _178_ _177_ AOI21X1
XNAND2X1_37 vdd _179_ gnd _161_ _141_ NAND2X1
XOAI21X1_21 gnd vdd _146_ _179_ _180_ _169_ OAI21X1
XINVX1_18 _177_ _181_ vdd gnd INVX1
XNOR2X1_26 vdd _180_ gnd _182_ _181_ NOR2X1
XNOR2X1_27 vdd _182_ gnd micro_ucr_hash1.c[1][6] _178_ NOR2X1
XINVX1_19 _222_ _183_ vdd gnd INVX1
XAOI21X1_20 gnd vdd _142_ _183_ _184_ _233_ AOI21X1
XAOI21X1_21 gnd vdd _197_ _198_ _185_ _207_ AOI21X1
XNAND3X1_21 _221_ vdd gnd _185_ _128_ _186_ NAND3X1
XAOI21X1_22 gnd vdd _184_ _186_ _187_ _179_ AOI21X1
XOAI21X1_22 gnd vdd _162_ _136_ _188_ _166_ OAI21X1
XOAI21X1_23 gnd vdd _187_ _188_ _189_ _181_ OAI21X1
XXOR2X1_11 _190_ vdd bloque_bytes[87] vdd gnd XOR2X1
XXNOR2X1_11 _190_ micro_ucr_hash1.a[0][7] gnd vdd _191_ XNOR2X1
XXNOR2X1_12 _191_ _172_ gnd vdd _192_ XNOR2X1
XNAND3X1_22 _192_ vdd gnd _175_ _189_ _193_ NAND3X1
XINVX1_20 _175_ _194_ vdd gnd INVX1
XINVX1_21 _192_ _195_ vdd gnd INVX1
XOAI21X1_24 gnd vdd _178_ _194_ _196_ _195_ OAI21X1
XNAND2X1_38 vdd micro_ucr_hash1.c[1][7] gnd _193_ _196_ NAND2X1
XXOR2X1_12 micro_ucr_hash1.a[2][0] vdd gnd micro_ucr_hash1.b[2][4] gnd XOR2X1
XXOR2X1_13 micro_ucr_hash1.a[2][1] vdd gnd micro_ucr_hash1.b[2][5] gnd XOR2X1
XXOR2X1_14 micro_ucr_hash1.a[2][2] vdd gnd micro_ucr_hash1.b[2][6] gnd XOR2X1
XXOR2X1_15 micro_ucr_hash1.a[2][3] vdd gnd micro_ucr_hash1.b[2][7] gnd XOR2X1
XXOR2X1_16 micro_ucr_hash1.a[2][4] vdd micro_ucr_hash1.b[1][4] micro_ucr_hash1.c[1][4] gnd XOR2X1
XXOR2X1_17 micro_ucr_hash1.a[2][5] vdd micro_ucr_hash1.b[1][5] micro_ucr_hash1.c[1][5] gnd XOR2X1
XXOR2X1_18 micro_ucr_hash1.a[2][6] vdd micro_ucr_hash1.b[1][6] micro_ucr_hash1.c[1][6] gnd XOR2X1
XXOR2X1_19 micro_ucr_hash1.a[2][7] vdd micro_ucr_hash1.b[1][7] micro_ucr_hash1.c[1][7] gnd XOR2X1
XINVX2_14 vdd gnd _306_ bloque_bytes[72] INVX2
XXNOR2X1_13 gnd micro_ucr_hash1.a[1][0] gnd vdd _307_ XNOR2X1
XXNOR2X1_14 _307_ _306_ gnd vdd micro_ucr_hash1.b[3][4] XNOR2X1
XNAND2X1_39 vdd _308_ gnd _306_ _307_ NAND2X1
XOR2X2_9 _309_ micro_ucr_hash1.a[1][1] vdd gnd gnd OR2X2
XNAND2X1_40 vdd _310_ gnd gnd micro_ucr_hash1.a[1][1] NAND2X1
XNAND3X1_23 _310_ vdd gnd bloque_bytes[73] _309_ _311_ NAND3X1
XINVX1_22 bloque_bytes[73] _312_ vdd gnd INVX1
XNOR2X1_28 vdd micro_ucr_hash1.a[1][1] gnd _313_ gnd NOR2X1
XAND2X2_8 vdd gnd gnd micro_ucr_hash1.a[1][1] _314_ AND2X2
XOAI21X1_25 gnd vdd _314_ _313_ _315_ _312_ OAI21X1
XNAND2X1_41 vdd _316_ gnd _315_ _311_ NAND2X1
XXNOR2X1_15 _316_ _308_ gnd vdd micro_ucr_hash1.b[3][5] XNOR2X1
XNAND3X1_24 _315_ vdd gnd _311_ _308_ _317_ NAND3X1
XNOR3X1_27 vdd gnd _313_ _314_ _312_ _318_ NOR3X1
XINVX1_23 bloque_bytes[74] _319_ vdd gnd INVX1
XNOR2X1_29 vdd micro_ucr_hash1.a[1][2] gnd _320_ gnd NOR2X1
XAND2X2_9 vdd gnd gnd micro_ucr_hash1.a[1][2] _321_ AND2X2
XNOR3X1_28 vdd gnd _320_ _321_ _319_ _322_ NOR3X1
XOR2X2_10 _323_ micro_ucr_hash1.a[1][2] vdd gnd gnd OR2X2
XNAND2X1_42 vdd _324_ gnd gnd micro_ucr_hash1.a[1][2] NAND2X1
XAOI21X1_23 gnd vdd _324_ _323_ _325_ bloque_bytes[74] AOI21X1
XOAI21X1_26 gnd vdd _322_ _325_ _326_ _318_ OAI21X1
XNAND3X1_25 _324_ vdd gnd bloque_bytes[74] _323_ _327_ NAND3X1
XOAI21X1_27 gnd vdd _321_ _320_ _328_ _319_ OAI21X1
XNAND3X1_26 _311_ vdd gnd _328_ _327_ _329_ NAND3X1
XNAND2X1_43 vdd _330_ gnd _329_ _326_ NAND2X1
XXNOR2X1_16 _330_ _317_ gnd vdd micro_ucr_hash1.b[3][6] XNOR2X1
XNAND3X1_27 _328_ vdd gnd _327_ _318_ _331_ NAND3X1
XOAI21X1_28 gnd vdd _322_ _325_ _332_ _311_ OAI21X1
XNAND2X1_44 vdd _333_ gnd _331_ _332_ NAND2X1
XOAI21X1_29 gnd vdd _333_ _317_ _334_ _331_ OAI21X1
XINVX1_24 bloque_bytes[75] _335_ vdd gnd INVX1
XNOR2X1_30 vdd micro_ucr_hash1.a[1][3] gnd _336_ gnd NOR2X1
XAND2X2_10 vdd gnd gnd micro_ucr_hash1.a[1][3] _337_ AND2X2
XOAI21X1_30 gnd vdd _337_ _336_ _338_ _335_ OAI21X1
XOR2X2_11 _339_ micro_ucr_hash1.a[1][3] vdd gnd gnd OR2X2
XNAND2X1_45 vdd _340_ gnd gnd micro_ucr_hash1.a[1][3] NAND2X1
XNAND3X1_28 _340_ vdd gnd bloque_bytes[75] _339_ _341_ NAND3X1
XAOI21X1_24 gnd vdd _338_ _341_ _342_ _327_ AOI21X1
XNAND3X1_29 _340_ vdd gnd _335_ _339_ _343_ NAND3X1
XOAI21X1_31 gnd vdd _337_ _336_ _344_ bloque_bytes[75] OAI21X1
XAOI21X1_25 gnd vdd _344_ _343_ _345_ _322_ AOI21X1
XNOR2X1_31 vdd _345_ gnd _237_ _342_ NOR2X1
XXOR2X1_20 micro_ucr_hash1.b[3][7] vdd _237_ _334_ gnd XOR2X1
XINVX1_25 bloque_bytes[76] _238_ vdd gnd INVX1
XOR2X2_12 _239_ micro_ucr_hash1.a[1][4] vdd gnd micro_ucr_hash1.b[1][4] OR2X2
XNAND2X1_46 vdd _240_ gnd micro_ucr_hash1.b[1][4] micro_ucr_hash1.a[1][4] NAND2X1
XNAND3X1_30 _240_ vdd gnd _238_ _239_ _241_ NAND3X1
XNOR2X1_32 vdd micro_ucr_hash1.a[1][4] gnd _242_ micro_ucr_hash1.b[1][4] NOR2X1
XAND2X2_11 vdd gnd micro_ucr_hash1.b[1][4] micro_ucr_hash1.a[1][4] _243_ AND2X2
XOAI21X1_32 gnd vdd _243_ _242_ _244_ bloque_bytes[76] OAI21X1
XNAND3X1_31 _241_ vdd gnd _338_ _244_ _245_ NAND3X1
XAOI21X1_26 gnd vdd _340_ _339_ _246_ bloque_bytes[75] AOI21X1
XOAI21X1_33 gnd vdd _243_ _242_ _247_ _238_ OAI21X1
XNAND3X1_32 _240_ vdd gnd bloque_bytes[76] _239_ _248_ NAND3X1
XNAND3X1_33 _248_ vdd gnd _247_ _246_ _249_ NAND3X1
XAND2X2_12 vdd gnd _249_ _245_ _250_ AND2X2
XINVX2_15 vdd gnd _251_ _345_ INVX2
XNOR2X1_33 vdd _322_ gnd _252_ _325_ NOR2X1
XAOI21X1_27 gnd vdd _318_ _252_ _253_ _342_ AOI21X1
XOAI21X1_34 gnd vdd _333_ _317_ _254_ _253_ OAI21X1
XNAND2X1_47 vdd _255_ gnd _251_ _254_ NAND2X1
XXNOR2X1_17 _255_ _250_ gnd vdd micro_ucr_hash1.c[2][4] XNOR2X1
XNAND2X1_48 vdd _256_ gnd _245_ _249_ NAND2X1
XOAI21X1_35 gnd vdd _255_ _256_ _257_ _245_ OAI21X1
XINVX1_26 bloque_bytes[77] _258_ vdd gnd INVX1
XOR2X2_13 _259_ micro_ucr_hash1.a[1][5] vdd gnd micro_ucr_hash1.b[1][5] OR2X2
XNAND2X1_49 vdd _260_ gnd micro_ucr_hash1.b[1][5] micro_ucr_hash1.a[1][5] NAND2X1
XNAND3X1_34 _260_ vdd gnd _258_ _259_ _261_ NAND3X1
XNOR2X1_34 vdd micro_ucr_hash1.a[1][5] gnd _262_ micro_ucr_hash1.b[1][5] NOR2X1
XAND2X2_13 vdd gnd micro_ucr_hash1.b[1][5] micro_ucr_hash1.a[1][5] _263_ AND2X2
XOAI21X1_36 gnd vdd _263_ _262_ _264_ bloque_bytes[77] OAI21X1
XNAND3X1_35 _264_ vdd gnd _247_ _261_ _265_ NAND3X1
XAOI21X1_28 gnd vdd _240_ _239_ _266_ bloque_bytes[76] AOI21X1
XNAND3X1_36 _260_ vdd gnd bloque_bytes[77] _259_ _267_ NAND3X1
XOAI21X1_37 gnd vdd _263_ _262_ _268_ _258_ OAI21X1
XNAND3X1_37 _267_ vdd gnd _268_ _266_ _269_ NAND3X1
XNAND2X1_50 vdd _270_ gnd _265_ _269_ NAND2X1
XINVX2_16 vdd gnd _271_ _270_ INVX2
XXNOR2X1_18 _257_ _271_ gnd vdd micro_ucr_hash1.c[2][5] XNOR2X1
XAOI21X1_29 gnd vdd _265_ _269_ _272_ _256_ AOI21X1
XNAND3X1_38 _272_ vdd gnd _251_ _254_ _273_ NAND3X1
XNAND2X1_51 vdd _274_ gnd _268_ _267_ NAND2X1
XOR2X2_14 _275_ _266_ vdd gnd _274_ OR2X2
XINVX1_27 _275_ _276_ vdd gnd INVX1
XAOI21X1_30 gnd vdd _266_ _274_ _277_ _245_ AOI21X1
XNOR2X1_35 vdd _276_ gnd _278_ _277_ NOR2X1
XINVX1_28 bloque_bytes[78] _279_ vdd gnd INVX1
XXNOR2X1_19 micro_ucr_hash1.b[1][6] micro_ucr_hash1.a[1][6] gnd vdd _280_ XNOR2X1
XOR2X2_15 _281_ _279_ vdd gnd _280_ OR2X2
XNAND2X1_52 vdd _282_ gnd _279_ _280_ NAND2X1
XNAND2X1_53 vdd _283_ gnd _282_ _281_ NAND2X1
XOR2X2_16 _284_ _267_ vdd gnd _283_ OR2X2
XNAND2X1_54 vdd _285_ gnd _267_ _283_ NAND2X1
XNAND2X1_55 vdd _286_ gnd _285_ _284_ NAND2X1
XAOI21X1_31 gnd vdd _278_ _273_ _287_ _286_ AOI21X1
XNAND2X1_56 vdd _288_ gnd _270_ _250_ NAND2X1
XOAI21X1_38 gnd vdd _255_ _288_ _289_ _278_ OAI21X1
XINVX1_29 _286_ _290_ vdd gnd INVX1
XNOR2X1_36 vdd _289_ gnd _291_ _290_ NOR2X1
XNOR2X1_37 vdd _291_ gnd micro_ucr_hash1.c[2][6] _287_ NOR2X1
XINVX1_30 _331_ _292_ vdd gnd INVX1
XAOI21X1_32 gnd vdd _251_ _292_ _293_ _342_ AOI21X1
XAOI21X1_33 gnd vdd _306_ _307_ _294_ _316_ AOI21X1
XNAND3X1_39 _330_ vdd gnd _294_ _237_ _295_ NAND3X1
XAOI21X1_34 gnd vdd _293_ _295_ _296_ _288_ AOI21X1
XOAI21X1_39 gnd vdd _271_ _245_ _297_ _275_ OAI21X1
XOAI21X1_40 gnd vdd _296_ _297_ _298_ _290_ OAI21X1
XXOR2X1_21 _299_ vdd bloque_bytes[79] micro_ucr_hash1.b[1][7] gnd XOR2X1
XXNOR2X1_20 _299_ micro_ucr_hash1.a[1][7] gnd vdd _300_ XNOR2X1
XXNOR2X1_21 _300_ _281_ gnd vdd _301_ XNOR2X1
XNAND3X1_40 _301_ vdd gnd _284_ _298_ _302_ NAND3X1
XINVX1_31 _284_ _303_ vdd gnd INVX1
XINVX1_32 _301_ _304_ vdd gnd INVX1
XOAI21X1_41 gnd vdd _287_ _303_ _305_ _304_ OAI21X1
XNAND2X1_57 vdd micro_ucr_hash1.c[2][7] gnd _302_ _305_ NAND2X1
XXOR2X1_22 micro_ucr_hash1.a[3][0] vdd gnd micro_ucr_hash1.b[3][4] gnd XOR2X1
XXOR2X1_23 micro_ucr_hash1.a[3][1] vdd gnd micro_ucr_hash1.b[3][5] gnd XOR2X1
XXOR2X1_24 micro_ucr_hash1.a[3][2] vdd gnd micro_ucr_hash1.b[3][6] gnd XOR2X1
XXOR2X1_25 micro_ucr_hash1.a[3][3] vdd gnd micro_ucr_hash1.b[3][7] gnd XOR2X1
XXOR2X1_26 micro_ucr_hash1.a[3][4] vdd micro_ucr_hash1.b[2][4] micro_ucr_hash1.c[2][4] gnd XOR2X1
XXOR2X1_27 micro_ucr_hash1.a[3][5] vdd micro_ucr_hash1.b[2][5] micro_ucr_hash1.c[2][5] gnd XOR2X1
XXOR2X1_28 micro_ucr_hash1.a[3][6] vdd micro_ucr_hash1.b[2][6] micro_ucr_hash1.c[2][6] gnd XOR2X1
XXOR2X1_29 micro_ucr_hash1.a[3][7] vdd micro_ucr_hash1.b[2][7] micro_ucr_hash1.c[2][7] gnd XOR2X1
XINVX2_17 vdd gnd _415_ bloque_bytes[64] INVX2
XXNOR2X1_22 gnd micro_ucr_hash1.a[2][0] gnd vdd _416_ XNOR2X1
XXNOR2X1_23 _416_ _415_ gnd vdd micro_ucr_hash1.b[4][4] XNOR2X1
XNAND2X1_58 vdd _417_ gnd _415_ _416_ NAND2X1
XOR2X2_17 _418_ micro_ucr_hash1.a[2][1] vdd gnd gnd OR2X2