* XSpice netlist created from SPICE and liberty sources by spi2xspice.py
*SPICE netlist created from BLIF module modulo_rendimiento by blif2BSpice
.subckt modulo_rendimiento a_vdd a_gnd a_inicio a_bloque_bytes_0_ a_bloque_bytes_1_ a_bloque_bytes_2_ a_bloque_bytes_3_ a_bloque_bytes_4_ a_bloque_bytes_5_ a_bloque_bytes_6_ a_bloque_bytes_7_ a_bloque_bytes_8_ a_bloque_bytes_9_ a_bloque_bytes_10_ a_bloque_bytes_11_ a_bloque_bytes_12_ a_bloque_bytes_13_ a_bloque_bytes_14_ a_bloque_bytes_15_ a_bloque_bytes_16_ a_bloque_bytes_17_ a_bloque_bytes_18_ a_bloque_bytes_19_ a_bloque_bytes_20_ a_bloque_bytes_21_ a_bloque_bytes_22_ a_bloque_bytes_23_ a_bloque_bytes_24_ a_bloque_bytes_25_ a_bloque_bytes_26_ a_bloque_bytes_27_ a_bloque_bytes_28_ a_bloque_bytes_29_ a_bloque_bytes_30_ a_bloque_bytes_31_ a_bloque_bytes_32_ a_bloque_bytes_33_ a_bloque_bytes_34_ a_bloque_bytes_35_ a_bloque_bytes_36_ a_bloque_bytes_37_ a_bloque_bytes_38_ a_bloque_bytes_39_ a_bloque_bytes_40_ a_bloque_bytes_41_ a_bloque_bytes_42_ a_bloque_bytes_43_ a_bloque_bytes_44_ a_bloque_bytes_45_ a_bloque_bytes_46_ a_bloque_bytes_47_ a_bloque_bytes_48_ a_bloque_bytes_49_ a_bloque_bytes_50_ a_bloque_bytes_51_ a_bloque_bytes_52_ a_bloque_bytes_53_ a_bloque_bytes_54_ a_bloque_bytes_55_ a_bloque_bytes_56_ a_bloque_bytes_57_ a_bloque_bytes_58_ a_bloque_bytes_59_ a_bloque_bytes_60_ a_bloque_bytes_61_ a_bloque_bytes_62_ a_bloque_bytes_63_ a_bloque_bytes_64_ a_bloque_bytes_65_ a_bloque_bytes_66_ a_bloque_bytes_67_ a_bloque_bytes_68_ a_bloque_bytes_69_ a_bloque_bytes_70_ a_bloque_bytes_71_ a_bloque_bytes_72_ a_bloque_bytes_73_ a_bloque_bytes_74_ a_bloque_bytes_75_ a_bloque_bytes_76_ a_bloque_bytes_77_ a_bloque_bytes_78_ a_bloque_bytes_79_ a_bloque_bytes_80_ a_bloque_bytes_81_ a_bloque_bytes_82_ a_bloque_bytes_83_ a_bloque_bytes_84_ a_bloque_bytes_85_ a_bloque_bytes_86_ a_bloque_bytes_87_ a_bloque_bytes_88_ a_bloque_bytes_89_ a_bloque_bytes_90_ a_bloque_bytes_91_ a_bloque_bytes_92_ a_bloque_bytes_93_ a_bloque_bytes_94_ a_bloque_bytes_95_ a_clk a_reset a_target_0_ a_target_1_ a_target_2_ a_target_3_ a_target_4_ a_target_5_ a_target_6_ a_target_7_ a_terminado a_hash_0_ a_hash_1_ a_hash_2_ a_hash_3_ a_hash_4_ a_hash_5_ a_hash_6_ a_hash_7_ a_hash_8_ a_hash_9_ a_hash_10_ a_hash_11_ a_hash_12_ a_hash_13_ a_hash_14_ a_hash_15_ a_hash_16_ a_hash_17_ a_hash_18_ a_hash_19_ a_hash_20_ a_hash_21_ a_hash_22_ a_hash_23_
ABUFX4_1 [_127_] _127__bF$buf4 d_lut_BUFX4
ABUFX4_2 [_127_] _127__bF$buf3 d_lut_BUFX4
ABUFX4_3 [_127_] _127__bF$buf2 d_lut_BUFX4
ABUFX4_4 [_127_] _127__bF$buf1 d_lut_BUFX4
ABUFX4_5 [_127_] _127__bF$buf0 d_lut_BUFX4
ACLKBUF1_1 [clk] clk_bF$buf9 d_lut_CLKBUF1
ACLKBUF1_2 [clk] clk_bF$buf8 d_lut_CLKBUF1
ACLKBUF1_3 [clk] clk_bF$buf7 d_lut_CLKBUF1
ACLKBUF1_4 [clk] clk_bF$buf6 d_lut_CLKBUF1
ACLKBUF1_5 [clk] clk_bF$buf5 d_lut_CLKBUF1
ACLKBUF1_6 [clk] clk_bF$buf4 d_lut_CLKBUF1
ACLKBUF1_7 [clk] clk_bF$buf3 d_lut_CLKBUF1
ACLKBUF1_8 [clk] clk_bF$buf2 d_lut_CLKBUF1
ACLKBUF1_9 [clk] clk_bF$buf1 d_lut_CLKBUF1
ACLKBUF1_10 [clk] clk_bF$buf0 d_lut_CLKBUF1
ABUFX4_6 [_3299_] _3299__bF$buf4 d_lut_BUFX4
ABUFX4_7 [_3299_] _3299__bF$buf3 d_lut_BUFX4
ABUFX4_8 [_3299_] _3299__bF$buf2 d_lut_BUFX4
ABUFX4_9 [_3299_] _3299__bF$buf1 d_lut_BUFX4
ABUFX4_10 [_3299_] _3299__bF$buf0 d_lut_BUFX4
ABUFX4_11 [_85_] _85__bF$buf4 d_lut_BUFX4
ABUFX4_12 [_85_] _85__bF$buf3 d_lut_BUFX4
ABUFX4_13 [_85_] _85__bF$buf2 d_lut_BUFX4
ABUFX4_14 [_85_] _85__bF$buf1 d_lut_BUFX4
ABUFX4_15 [_85_] _85__bF$buf0 d_lut_BUFX4
ABUFX4_16 [_110_] _110__bF$buf4 d_lut_BUFX4
ABUFX4_17 [_110_] _110__bF$buf3 d_lut_BUFX4
ABUFX4_18 [_110_] _110__bF$buf2 d_lut_BUFX4
ABUFX4_19 [_110_] _110__bF$buf1 d_lut_BUFX4
ABUFX4_20 [_110_] _110__bF$buf0 d_lut_BUFX4
ABUFX4_21 [reset] reset_bF$buf5 d_lut_BUFX4
ABUFX4_22 [reset] reset_bF$buf4 d_lut_BUFX4
ABUFX4_23 [reset] reset_bF$buf3 d_lut_BUFX4
ABUFX4_24 [reset] reset_bF$buf2 d_lut_BUFX4
ABUFX4_25 [reset] reset_bF$buf1 d_lut_BUFX4
ABUFX4_26 [reset] reset_bF$buf0 d_lut_BUFX4
AINVX8_1 [reset_bF$buf5] _110_ d_lut_INVX8
ANOR2X1_1 [target_7_ micro_ucr_hash1.hash_15_] _111_ d_lut_NOR2X1
ANAND2X1_1 [target_7_ micro_ucr_hash1.hash_15_] _112_ d_lut_NAND2X1
AINVX1_1 [_112_] _113_ d_lut_INVX1
AXNOR2X1_1 [target_6_ micro_ucr_hash1.hash_14_] _114_ d_lut_XNOR2X1
AOAI21X1_1 [_111_ _113_ _114_] _115_ d_lut_OAI21X1
AINVX2_1 [micro_ucr_hash1.hash_13_] _116_ d_lut_INVX2
AINVX2_2 [micro_ucr_hash1.hash_12_] _117_ d_lut_INVX2
AAOI22X1_1 [_116_ target_5_ target_4_ _117_] _118_ d_lut_AOI22X1
AINVX4_1 [target_5_] _119_ d_lut_INVX4
AINVX2_3 [target_4_] _120_ d_lut_INVX2
AAOI22X1_2 [_119_ micro_ucr_hash1.hash_13_ _120_ micro_ucr_hash1.hash_12_] _121_ d_lut_AOI22X1
ANAND2X1_2 [_118_ _121_] _122_ d_lut_NAND2X1
ANOR2X1_2 [_122_ _115_] _123_ d_lut_NOR2X1
AXNOR2X1_2 [target_3_ micro_ucr_hash1.hash_11_] _124_ d_lut_XNOR2X1
AXNOR2X1_3 [target_2_ micro_ucr_hash1.hash_10_] _125_ d_lut_XNOR2X1
ANAND2X1_3 [_124_ _125_] _2_ d_lut_NAND2X1
AINVX2_4 [target_1_] _3_ d_lut_INVX2
ANOR2X1_3 [micro_ucr_hash1.hash_9_ _3_] _4_ d_lut_NOR2X1
AINVX2_5 [target_0_] _5_ d_lut_INVX2
ANAND2X1_4 [micro_ucr_hash1.hash_8_ _5_] _6_ d_lut_NAND2X1
ANAND2X1_5 [micro_ucr_hash1.hash_9_ _3_] _7_ d_lut_NAND2X1
AAOI21X1_1 [_6_ _7_ _4_] _8_ d_lut_AOI21X1
AINVX2_6 [target_3_] _9_ d_lut_INVX2
ANOR2X1_4 [micro_ucr_hash1.hash_11_ _9_] _10_ d_lut_NOR2X1
ANAND2X1_6 [micro_ucr_hash1.hash_11_ _9_] _11_ d_lut_NAND2X1
AINVX2_7 [target_2_] _12_ d_lut_INVX2
ANOR2X1_5 [micro_ucr_hash1.hash_10_ _12_] _13_ d_lut_NOR2X1
AAOI21X1_2 [_11_ _13_ _10_] _14_ d_lut_AOI21X1
AOAI21X1_2 [_2_ _8_ _14_] _15_ d_lut_OAI21X1
ANAND2X1_7 [_123_ _15_] _16_ d_lut_NAND2X1
AINVX1_2 [_111_] _17_ d_lut_INVX1
AXOR2X1_1 [target_6_ micro_ucr_hash1.hash_14_] _18_ d_lut_XOR2X1
AAOI21X1_3 [_17_ _112_ _18_] _19_ d_lut_AOI21X1
ANAND2X1_8 [target_5_ _116_] _20_ d_lut_NAND2X1
ANAND2X1_9 [target_4_ _117_] _21_ d_lut_NAND2X1
ANOR2X1_6 [target_5_ _116_] _22_ d_lut_NOR2X1
AOAI21X1_3 [_22_ _21_ _20_] _23_ d_lut_OAI21X1
AINVX2_8 [target_7_] _24_ d_lut_INVX2
AINVX2_9 [target_6_] _25_ d_lut_INVX2
ANOR2X1_7 [micro_ucr_hash1.hash_14_ _25_] _26_ d_lut_NOR2X1
AOAI21X1_4 [_113_ _111_ _26_] _27_ d_lut_OAI21X1
AOAI21X1_5 [_24_ micro_ucr_hash1.hash_15_ _27_] _28_ d_lut_OAI21X1
AAOI21X1_4 [_23_ _19_ _28_] _29_ d_lut_AOI21X1
AOAI22X1_1 [_119_ micro_ucr_hash1.hash_13_ _120_ micro_ucr_hash1.hash_12_] _30_ d_lut_OAI22X1
AOAI22X1_2 [_116_ target_5_ target_4_ _117_] _31_ d_lut_OAI22X1
ANOR2X1_8 [_30_ _31_] _32_ d_lut_NOR2X1
ANAND2X1_10 [_32_ _19_] _33_ d_lut_NAND2X1
AINVX1_3 [micro_ucr_hash1.hash_9_] _34_ d_lut_INVX1
AINVX1_4 [micro_ucr_hash1.hash_8_] _35_ d_lut_INVX1
AOAI22X1_3 [_34_ target_1_ target_0_ _35_] _36_ d_lut_OAI22X1
AOAI22X1_4 [_3_ micro_ucr_hash1.hash_9_ _5_ micro_ucr_hash1.hash_8_] _37_ d_lut_OAI22X1
ANOR2X1_9 [_36_ _37_] _38_ d_lut_NOR2X1
ANAND3X1_1 [_124_ _125_ _38_] _39_ d_lut_NAND3X1
ANOR2X1_10 [_33_ _39_] _40_ d_lut_NOR2X1
AAOI21X1_5 [_29_ _16_ _40_] _41_ d_lut_AOI21X1
AINVX1_5 [micro_ucr_hash1.hash_23_] _42_ d_lut_INVX1
AINVX1_6 [micro_ucr_hash1.hash_22_] _43_ d_lut_INVX1
AAOI22X1_3 [_42_ target_7_ _43_ target_6_] _44_ d_lut_AOI22X1
ANAND2X1_11 [micro_ucr_hash1.hash_23_ _24_] _45_ d_lut_NAND2X1
ANAND2X1_12 [micro_ucr_hash1.hash_22_ _25_] _46_ d_lut_NAND2X1
ANAND3X1_2 [_45_ _46_ _44_] _47_ d_lut_NAND3X1
AINVX1_7 [micro_ucr_hash1.hash_21_] _48_ d_lut_INVX1
AINVX1_8 [micro_ucr_hash1.hash_20_] _49_ d_lut_INVX1
AAOI22X1_4 [_48_ target_5_ _49_ target_4_] _50_ d_lut_AOI22X1
ANAND2X1_13 [micro_ucr_hash1.hash_21_ _119_] _51_ d_lut_NAND2X1
ANAND2X1_14 [micro_ucr_hash1.hash_20_ _120_] _52_ d_lut_NAND2X1
ANAND3X1_3 [_51_ _52_ _50_] _53_ d_lut_NAND3X1
ANOR2X1_11 [_47_ _53_] _54_ d_lut_NOR2X1
AINVX2_10 [micro_ucr_hash1.hash_19_] _55_ d_lut_INVX2
AINVX1_9 [micro_ucr_hash1.hash_18_] _56_ d_lut_INVX1
AAOI22X1_5 [_55_ target_3_ _56_ target_2_] _57_ d_lut_AOI22X1
AAOI22X1_6 [_9_ micro_ucr_hash1.hash_19_ micro_ucr_hash1.hash_18_ _12_] _58_ d_lut_AOI22X1
ANAND2X1_15 [_57_ _58_] _59_ d_lut_NAND2X1
ANOR2X1_12 [micro_ucr_hash1.hash_17_ _3_] _60_ d_lut_NOR2X1
ANAND2X1_16 [micro_ucr_hash1.hash_16_ _5_] _61_ d_lut_NAND2X1
ANAND2X1_17 [micro_ucr_hash1.hash_17_ _3_] _62_ d_lut_NAND2X1
AAOI21X1_6 [_61_ _62_ _60_] _63_ d_lut_AOI21X1
AOAI22X1_5 [_9_ micro_ucr_hash1.hash_19_ micro_ucr_hash1.hash_18_ _12_] _64_ d_lut_OAI22X1
AOAI21X1_6 [_55_ target_3_ _64_] _65_ d_lut_OAI21X1
AOAI21X1_7 [_59_ _63_ _65_] _66_ d_lut_OAI21X1
ANAND2X1_18 [_66_ _54_] _67_ d_lut_NAND2X1
AOAI22X1_6 [_24_ micro_ucr_hash1.hash_23_ micro_ucr_hash1.hash_22_ _25_] _68_ d_lut_OAI22X1
AOAI22X1_7 [_42_ target_7_ _43_ target_6_] _69_ d_lut_OAI22X1
ANOR2X1_13 [_68_ _69_] _70_ d_lut_NOR2X1
AAOI21X1_7 [micro_ucr_hash1.hash_21_ _119_ _50_] _71_ d_lut_AOI21X1
AAOI22X1_7 [_68_ _45_ _70_ _71_] _72_ d_lut_AOI22X1
AOAI22X1_8 [_119_ micro_ucr_hash1.hash_21_ micro_ucr_hash1.hash_20_ _120_] _73_ d_lut_OAI22X1
AOAI22X1_9 [_48_ target_5_ _49_ target_4_] _74_ d_lut_OAI22X1
ANOR2X1_14 [_73_ _74_] _75_ d_lut_NOR2X1
ANAND2X1_19 [_70_ _75_] _76_ d_lut_NAND2X1
AOAI22X1_10 [_55_ target_3_ _56_ target_2_] _77_ d_lut_OAI22X1
ANOR2X1_15 [_64_ _77_] _78_ d_lut_NOR2X1
AAND2X2_1 [_61_ _62_] _79_ d_lut_AND2X2
AINVX1_10 [micro_ucr_hash1.hash_16_] _80_ d_lut_INVX1
AAOI21X1_8 [_80_ target_0_ _60_] _81_ d_lut_AOI21X1
ANAND3X1_4 [_79_ _81_ _78_] _82_ d_lut_NAND3X1
ANOR2X1_16 [_76_ _82_] _83_ d_lut_NOR2X1
AAOI21X1_9 [_67_ _72_ _83_] _84_ d_lut_AOI21X1
AAOI21X1_10 [_84_ _41_ _127__bF$buf4] _85_ d_lut_AOI21X1
ANOR2X1_17 [_110__bF$buf4 _85__bF$buf4] _1_ d_lut_NOR2X1
AMUX2X1_1 [_126__0_ micro_ucr_hash1.hash_0_ _127__bF$buf3] _86_ d_lut_MUX2X1
ANOR3X1_1 [_110__bF$buf3 _86_ _85__bF$buf3] _0__0_ d_lut_NOR3X1
AMUX2X1_2 [_126__1_ micro_ucr_hash1.hash_1_ _127__bF$buf2] _87_ d_lut_MUX2X1
ANOR3X1_2 [_110__bF$buf2 _87_ _85__bF$buf2] _0__1_ d_lut_NOR3X1
AMUX2X1_3 [_126__2_ micro_ucr_hash1.hash_2_ _127__bF$buf1] _88_ d_lut_MUX2X1
ANOR3X1_3 [_110__bF$buf1 _88_ _85__bF$buf1] _0__2_ d_lut_NOR3X1
AMUX2X1_4 [_126__3_ micro_ucr_hash1.hash_3_ _127__bF$buf0] _89_ d_lut_MUX2X1
ANOR3X1_4 [_110__bF$buf0 _89_ _85__bF$buf0] _0__3_ d_lut_NOR3X1
AMUX2X1_5 [_126__4_ micro_ucr_hash1.hash_4_ _127__bF$buf4] _90_ d_lut_MUX2X1
ANOR3X1_5 [_110__bF$buf4 _90_ _85__bF$buf4] _0__4_ d_lut_NOR3X1
AMUX2X1_6 [_126__5_ micro_ucr_hash1.hash_5_ _127__bF$buf3] _91_ d_lut_MUX2X1
ANOR3X1_6 [_110__bF$buf3 _91_ _85__bF$buf3] _0__5_ d_lut_NOR3X1
AMUX2X1_7 [_126__6_ micro_ucr_hash1.hash_6_ _127__bF$buf2] _92_ d_lut_MUX2X1
ANOR3X1_7 [_110__bF$buf2 _92_ _85__bF$buf2] _0__6_ d_lut_NOR3X1
AMUX2X1_8 [_126__7_ micro_ucr_hash1.hash_7_ _127__bF$buf1] _93_ d_lut_MUX2X1
ANOR3X1_8 [_110__bF$buf1 _93_ _85__bF$buf1] _0__7_ d_lut_NOR3X1
AMUX2X1_9 [_126__8_ micro_ucr_hash1.hash_8_ _127__bF$buf0] _94_ d_lut_MUX2X1
ANOR3X1_9 [_110__bF$buf0 _94_ _85__bF$buf0] _0__8_ d_lut_NOR3X1
AMUX2X1_10 [_126__9_ micro_ucr_hash1.hash_9_ _127__bF$buf4] _95_ d_lut_MUX2X1
ANOR3X1_10 [_110__bF$buf4 _95_ _85__bF$buf4] _0__9_ d_lut_NOR3X1
AMUX2X1_11 [_126__10_ micro_ucr_hash1.hash_10_ _127__bF$buf3] _96_ d_lut_MUX2X1
ANOR3X1_11 [_110__bF$buf3 _96_ _85__bF$buf3] _0__10_ d_lut_NOR3X1
AMUX2X1_12 [_126__11_ micro_ucr_hash1.hash_11_ _127__bF$buf2] _97_ d_lut_MUX2X1
ANOR3X1_12 [_110__bF$buf2 _97_ _85__bF$buf2] _0__11_ d_lut_NOR3X1
AMUX2X1_13 [_126__12_ micro_ucr_hash1.hash_12_ _127__bF$buf1] _98_ d_lut_MUX2X1
ANOR3X1_13 [_110__bF$buf1 _98_ _85__bF$buf1] _0__12_ d_lut_NOR3X1
AMUX2X1_14 [_126__13_ micro_ucr_hash1.hash_13_ _127__bF$buf0] _99_ d_lut_MUX2X1
ANOR3X1_14 [_110__bF$buf0 _99_ _85__bF$buf0] _0__13_ d_lut_NOR3X1
AMUX2X1_15 [_126__14_ micro_ucr_hash1.hash_14_ _127__bF$buf4] _100_ d_lut_MUX2X1
ANOR3X1_15 [_110__bF$buf4 _100_ _85__bF$buf4] _0__14_ d_lut_NOR3X1
AMUX2X1_16 [_126__15_ micro_ucr_hash1.hash_15_ _127__bF$buf3] _101_ d_lut_MUX2X1
ANOR3X1_16 [_110__bF$buf3 _101_ _85__bF$buf3] _0__15_ d_lut_NOR3X1
AMUX2X1_17 [_126__16_ micro_ucr_hash1.hash_16_ _127__bF$buf2] _102_ d_lut_MUX2X1
ANOR3X1_17 [_110__bF$buf2 _102_ _85__bF$buf2] _0__16_ d_lut_NOR3X1
AMUX2X1_18 [_126__17_ micro_ucr_hash1.hash_17_ _127__bF$buf1] _103_ d_lut_MUX2X1
ANOR3X1_18 [_110__bF$buf1 _103_ _85__bF$buf1] _0__17_ d_lut_NOR3X1
AMUX2X1_19 [_126__18_ micro_ucr_hash1.hash_18_ _127__bF$buf0] _104_ d_lut_MUX2X1
ANOR3X1_19 [_110__bF$buf0 _104_ _85__bF$buf0] _0__18_ d_lut_NOR3X1
AMUX2X1_20 [_126__19_ micro_ucr_hash1.hash_19_ _127__bF$buf4] _105_ d_lut_MUX2X1
ANOR3X1_20 [_110__bF$buf4 _105_ _85__bF$buf4] _0__19_ d_lut_NOR3X1
AMUX2X1_21 [_126__20_ micro_ucr_hash1.hash_20_ _127__bF$buf3] _106_ d_lut_MUX2X1
ANOR3X1_21 [_110__bF$buf3 _106_ _85__bF$buf3] _0__20_ d_lut_NOR3X1
AMUX2X1_22 [_126__21_ micro_ucr_hash1.hash_21_ _127__bF$buf2] _107_ d_lut_MUX2X1
ANOR3X1_22 [_110__bF$buf2 _107_ _85__bF$buf2] _0__21_ d_lut_NOR3X1
AMUX2X1_23 [_126__22_ micro_ucr_hash1.hash_22_ _127__bF$buf1] _108_ d_lut_MUX2X1
ANOR3X1_23 [_110__bF$buf1 _108_ _85__bF$buf1] _0__22_ d_lut_NOR3X1
AMUX2X1_24 [_126__23_ micro_ucr_hash1.hash_23_ _127__bF$buf0] _109_ d_lut_MUX2X1
ANOR3X1_24 [_110__bF$buf0 _109_ _85__bF$buf0] _0__23_ d_lut_NOR3X1
ABUFX2_1 [_126__0_] hash_0_ d_lut_BUFX2
ABUFX2_2 [_126__1_] hash_1_ d_lut_BUFX2
ABUFX2_3 [_126__2_] hash_2_ d_lut_BUFX2
ABUFX2_4 [_126__3_] hash_3_ d_lut_BUFX2
ABUFX2_5 [_126__4_] hash_4_ d_lut_BUFX2
ABUFX2_6 [_126__5_] hash_5_ d_lut_BUFX2
ABUFX2_7 [_126__6_] hash_6_ d_lut_BUFX2
ABUFX2_8 [_126__7_] hash_7_ d_lut_BUFX2
ABUFX2_9 [_126__8_] hash_8_ d_lut_BUFX2
ABUFX2_10 [_126__9_] hash_9_ d_lut_BUFX2
ABUFX2_11 [_126__10_] hash_10_ d_lut_BUFX2
ABUFX2_12 [_126__11_] hash_11_ d_lut_BUFX2
ABUFX2_13 [_126__12_] hash_12_ d_lut_BUFX2
ABUFX2_14 [_126__13_] hash_13_ d_lut_BUFX2
ABUFX2_15 [_126__14_] hash_14_ d_lut_BUFX2
ABUFX2_16 [_126__15_] hash_15_ d_lut_BUFX2
ABUFX2_17 [_126__16_] hash_16_ d_lut_BUFX2
ABUFX2_18 [_126__17_] hash_17_ d_lut_BUFX2
ABUFX2_19 [_126__18_] hash_18_ d_lut_BUFX2
ABUFX2_20 [_126__19_] hash_19_ d_lut_BUFX2
ABUFX2_21 [_126__20_] hash_20_ d_lut_BUFX2
ABUFX2_22 [_126__21_] hash_21_ d_lut_BUFX2
ABUFX2_23 [_126__22_] hash_22_ d_lut_BUFX2
ABUFX2_24 [_126__23_] hash_23_ d_lut_BUFX2
ABUFX2_25 [_127__bF$buf4] terminado d_lut_BUFX2
ADFFPOSX1_1 _1_ clk_bF$buf9 NULL NULL _127_ NULL ddflop
ADFFPOSX1_2 _0__0_ clk_bF$buf8 NULL NULL _126__0_ NULL ddflop
ADFFPOSX1_3 _0__1_ clk_bF$buf7 NULL NULL _126__1_ NULL ddflop
ADFFPOSX1_4 _0__2_ clk_bF$buf6 NULL NULL _126__2_ NULL ddflop
ADFFPOSX1_5 _0__3_ clk_bF$buf5 NULL NULL _126__3_ NULL ddflop
ADFFPOSX1_6 _0__4_ clk_bF$buf4 NULL NULL _126__4_ NULL ddflop
ADFFPOSX1_7 _0__5_ clk_bF$buf3 NULL NULL _126__5_ NULL ddflop
ADFFPOSX1_8 _0__6_ clk_bF$buf2 NULL NULL _126__6_ NULL ddflop
ADFFPOSX1_9 _0__7_ clk_bF$buf1 NULL NULL _126__7_ NULL ddflop
ADFFPOSX1_10 _0__8_ clk_bF$buf0 NULL NULL _126__8_ NULL ddflop
ADFFPOSX1_11 _0__9_ clk_bF$buf9 NULL NULL _126__9_ NULL ddflop
ADFFPOSX1_12 _0__10_ clk_bF$buf8 NULL NULL _126__10_ NULL ddflop
ADFFPOSX1_13 _0__11_ clk_bF$buf7 NULL NULL _126__11_ NULL ddflop
ADFFPOSX1_14 _0__12_ clk_bF$buf6 NULL NULL _126__12_ NULL ddflop
ADFFPOSX1_15 _0__13_ clk_bF$buf5 NULL NULL _126__13_ NULL ddflop
ADFFPOSX1_16 _0__14_ clk_bF$buf4 NULL NULL _126__14_ NULL ddflop
ADFFPOSX1_17 _0__15_ clk_bF$buf3 NULL NULL _126__15_ NULL ddflop
ADFFPOSX1_18 _0__16_ clk_bF$buf2 NULL NULL _126__16_ NULL ddflop
ADFFPOSX1_19 _0__17_ clk_bF$buf1 NULL NULL _126__17_ NULL ddflop
ADFFPOSX1_20 _0__18_ clk_bF$buf0 NULL NULL _126__18_ NULL ddflop
ADFFPOSX1_21 _0__19_ clk_bF$buf9 NULL NULL _126__19_ NULL ddflop
ADFFPOSX1_22 _0__20_ clk_bF$buf8 NULL NULL _126__20_ NULL ddflop
ADFFPOSX1_23 _0__21_ clk_bF$buf7 NULL NULL _126__21_ NULL ddflop
ADFFPOSX1_24 _0__22_ clk_bF$buf6 NULL NULL _126__22_ NULL ddflop
ADFFPOSX1_25 _0__23_ clk_bF$buf5 NULL NULL _126__23_ NULL ddflop
AXOR2X1_2 [micro_ucr_hash1.b_1__4_ gnd] micro_ucr_hash1.a_1__0_ d_lut_XOR2X1
AXOR2X1_3 [micro_ucr_hash1.b_1__5_ gnd] micro_ucr_hash1.a_1__1_ d_lut_XOR2X1
AXOR2X1_4 [micro_ucr_hash1.b_1__6_ gnd] micro_ucr_hash1.a_1__2_ d_lut_XOR2X1
AXOR2X1_5 [micro_ucr_hash1.b_1__7_ gnd] micro_ucr_hash1.a_1__3_ d_lut_XOR2X1
AXOR2X1_6 [micro_ucr_hash1.c_0__4_ gnd] micro_ucr_hash1.a_1__4_ d_lut_XOR2X1
AXOR2X1_7 [micro_ucr_hash1.c_0__5_ vdd] micro_ucr_hash1.a_1__5_ d_lut_XOR2X1
AXOR2X1_8 [micro_ucr_hash1.c_0__6_ vdd] micro_ucr_hash1.a_1__6_ d_lut_XOR2X1
AXOR2X1_9 [micro_ucr_hash1.c_0__7_ vdd] micro_ucr_hash1.a_1__7_ d_lut_XOR2X1
AINVX2_11 [bloque_bytes_80_] _197_ d_lut_INVX2
AXNOR2X1_4 [gnd micro_ucr_hash1.a_0__0_] _198_ d_lut_XNOR2X1
AXNOR2X1_5 [_198_ _197_] micro_ucr_hash1.b_2__4_ d_lut_XNOR2X1
ANAND2X1_20 [_197_ _198_] _199_ d_lut_NAND2X1
AOR2X2_1 [gnd micro_ucr_hash1.a_0__1_] _200_ d_lut_OR2X2
ANAND2X1_21 [gnd micro_ucr_hash1.a_0__1_] _201_ d_lut_NAND2X1
ANAND3X1_5 [bloque_bytes_81_ _201_ _200_] _202_ d_lut_NAND3X1
AINVX1_11 [bloque_bytes_81_] _203_ d_lut_INVX1
ANOR2X1_18 [gnd micro_ucr_hash1.a_0__1_] _204_ d_lut_NOR2X1
AAND2X2_2 [gnd micro_ucr_hash1.a_0__1_] _205_ d_lut_AND2X2
AOAI21X1_8 [_205_ _204_ _203_] _206_ d_lut_OAI21X1
ANAND2X1_22 [_206_ _202_] _207_ d_lut_NAND2X1
AXNOR2X1_6 [_207_ _199_] micro_ucr_hash1.b_2__5_ d_lut_XNOR2X1
ANAND3X1_6 [_202_ _206_ _199_] _208_ d_lut_NAND3X1
ANOR3X1_25 [_203_ _204_ _205_] _209_ d_lut_NOR3X1
AINVX1_12 [bloque_bytes_82_] _210_ d_lut_INVX1
ANOR2X1_19 [gnd micro_ucr_hash1.a_0__2_] _211_ d_lut_NOR2X1
AAND2X2_3 [gnd micro_ucr_hash1.a_0__2_] _212_ d_lut_AND2X2
ANOR3X1_26 [_210_ _211_ _212_] _213_ d_lut_NOR3X1
AOR2X2_2 [gnd micro_ucr_hash1.a_0__2_] _214_ d_lut_OR2X2
ANAND2X1_23 [gnd micro_ucr_hash1.a_0__2_] _215_ d_lut_NAND2X1
AAOI21X1_11 [_215_ _214_ bloque_bytes_82_] _216_ d_lut_AOI21X1
AOAI21X1_9 [_213_ _216_ _209_] _217_ d_lut_OAI21X1
ANAND3X1_7 [bloque_bytes_82_ _215_ _214_] _218_ d_lut_NAND3X1
AOAI21X1_10 [_212_ _211_ _210_] _219_ d_lut_OAI21X1
ANAND3X1_8 [_219_ _202_ _218_] _220_ d_lut_NAND3X1
ANAND2X1_24 [_220_ _217_] _221_ d_lut_NAND2X1
AXNOR2X1_7 [_221_ _208_] micro_ucr_hash1.b_2__6_ d_lut_XNOR2X1
ANAND3X1_9 [_218_ _219_ _209_] _222_ d_lut_NAND3X1
AOAI21X1_11 [_213_ _216_ _202_] _223_ d_lut_OAI21X1
ANAND2X1_25 [_222_ _223_] _224_ d_lut_NAND2X1
AOAI21X1_12 [_224_ _208_ _222_] _225_ d_lut_OAI21X1
AINVX1_13 [bloque_bytes_83_] _226_ d_lut_INVX1
ANOR2X1_20 [gnd micro_ucr_hash1.a_0__3_] _227_ d_lut_NOR2X1
AAND2X2_4 [gnd micro_ucr_hash1.a_0__3_] _228_ d_lut_AND2X2
AOAI21X1_13 [_228_ _227_ _226_] _229_ d_lut_OAI21X1
AOR2X2_3 [gnd micro_ucr_hash1.a_0__3_] _230_ d_lut_OR2X2
ANAND2X1_26 [gnd micro_ucr_hash1.a_0__3_] _231_ d_lut_NAND2X1
ANAND3X1_10 [bloque_bytes_83_ _231_ _230_] _232_ d_lut_NAND3X1
AAOI21X1_12 [_229_ _232_ _218_] _233_ d_lut_AOI21X1
ANAND3X1_11 [_226_ _231_ _230_] _234_ d_lut_NAND3X1
AOAI21X1_14 [_228_ _227_ bloque_bytes_83_] _235_ d_lut_OAI21X1
AAOI21X1_13 [_235_ _234_ _213_] _236_ d_lut_AOI21X1
ANOR2X1_21 [_233_ _236_] _128_ d_lut_NOR2X1
AXOR2X1_10 [_225_ _128_] micro_ucr_hash1.b_2__7_ d_lut_XOR2X1
AINVX1_14 [bloque_bytes_84_] _129_ d_lut_INVX1
AOR2X2_4 [gnd micro_ucr_hash1.a_0__4_] _130_ d_lut_OR2X2
ANAND2X1_27 [gnd micro_ucr_hash1.a_0__4_] _131_ d_lut_NAND2X1
ANAND3X1_12 [_129_ _131_ _130_] _132_ d_lut_NAND3X1
ANOR2X1_22 [gnd micro_ucr_hash1.a_0__4_] _133_ d_lut_NOR2X1
AAND2X2_5 [gnd micro_ucr_hash1.a_0__4_] _134_ d_lut_AND2X2
AOAI21X1_15 [_134_ _133_ bloque_bytes_84_] _135_ d_lut_OAI21X1
ANAND3X1_13 [_229_ _132_ _135_] _136_ d_lut_NAND3X1
AAOI21X1_14 [_231_ _230_ bloque_bytes_83_] _137_ d_lut_AOI21X1
AOAI21X1_16 [_134_ _133_ _129_] _138_ d_lut_OAI21X1
ANAND3X1_14 [bloque_bytes_84_ _131_ _130_] _139_ d_lut_NAND3X1
ANAND3X1_15 [_138_ _139_ _137_] _140_ d_lut_NAND3X1
AAND2X2_6 [_140_ _136_] _141_ d_lut_AND2X2
AINVX2_12 [_236_] _142_ d_lut_INVX2
ANOR2X1_23 [_216_ _213_] _143_ d_lut_NOR2X1
AAOI21X1_15 [_209_ _143_ _233_] _144_ d_lut_AOI21X1
AOAI21X1_17 [_224_ _208_ _144_] _145_ d_lut_OAI21X1
ANAND2X1_28 [_142_ _145_] _146_ d_lut_NAND2X1
AXNOR2X1_8 [_146_ _141_] micro_ucr_hash1.c_1__4_ d_lut_XNOR2X1
ANAND2X1_29 [_136_ _140_] _147_ d_lut_NAND2X1
AOAI21X1_18 [_146_ _147_ _136_] _148_ d_lut_OAI21X1
AINVX1_15 [bloque_bytes_85_] _149_ d_lut_INVX1
AOR2X2_5 [vdd micro_ucr_hash1.a_0__5_] _150_ d_lut_OR2X2
ANAND2X1_30 [vdd micro_ucr_hash1.a_0__5_] _151_ d_lut_NAND2X1
ANAND3X1_16 [_149_ _151_ _150_] _152_ d_lut_NAND3X1
ANOR2X1_24 [vdd micro_ucr_hash1.a_0__5_] _153_ d_lut_NOR2X1
AAND2X2_7 [vdd micro_ucr_hash1.a_0__5_] _154_ d_lut_AND2X2
AOAI21X1_19 [_154_ _153_ bloque_bytes_85_] _155_ d_lut_OAI21X1
ANAND3X1_17 [_138_ _155_ _152_] _156_ d_lut_NAND3X1
AAOI21X1_16 [_131_ _130_ bloque_bytes_84_] _157_ d_lut_AOI21X1
ANAND3X1_18 [bloque_bytes_85_ _151_ _150_] _158_ d_lut_NAND3X1
AOAI21X1_20 [_154_ _153_ _149_] _159_ d_lut_OAI21X1
ANAND3X1_19 [_159_ _158_ _157_] _160_ d_lut_NAND3X1
ANAND2X1_31 [_156_ _160_] _161_ d_lut_NAND2X1
AINVX2_13 [_161_] _162_ d_lut_INVX2
AXNOR2X1_9 [_148_ _162_] micro_ucr_hash1.c_1__5_ d_lut_XNOR2X1
AAOI21X1_17 [_156_ _160_ _147_] _163_ d_lut_AOI21X1
ANAND3X1_20 [_142_ _163_ _145_] _164_ d_lut_NAND3X1
ANAND2X1_32 [_159_ _158_] _165_ d_lut_NAND2X1
AOR2X2_6 [_165_ _157_] _166_ d_lut_OR2X2
AINVX1_16 [_166_] _167_ d_lut_INVX1
AAOI21X1_18 [_157_ _165_ _136_] _168_ d_lut_AOI21X1
ANOR2X1_25 [_168_ _167_] _169_ d_lut_NOR2X1
AINVX1_17 [bloque_bytes_86_] _170_ d_lut_INVX1
AXNOR2X1_10 [vdd micro_ucr_hash1.a_0__6_] _171_ d_lut_XNOR2X1
AOR2X2_7 [_171_ _170_] _172_ d_lut_OR2X2
ANAND2X1_33 [_170_ _171_] _173_ d_lut_NAND2X1
ANAND2X1_34 [_173_ _172_] _174_ d_lut_NAND2X1
AOR2X2_8 [_174_ _158_] _175_ d_lut_OR2X2
ANAND2X1_35 [_158_ _174_] _176_ d_lut_NAND2X1
ANAND2X1_36 [_176_ _175_] _177_ d_lut_NAND2X1
AAOI21X1_19 [_169_ _164_ _177_] _178_ d_lut_AOI21X1
ANAND2X1_37 [_161_ _141_] _179_ d_lut_NAND2X1
AOAI21X1_21 [_146_ _179_ _169_] _180_ d_lut_OAI21X1
AINVX1_18 [_177_] _181_ d_lut_INVX1
ANOR2X1_26 [_181_ _180_] _182_ d_lut_NOR2X1
ANOR2X1_27 [_178_ _182_] micro_ucr_hash1.c_1__6_ d_lut_NOR2X1
AINVX1_19 [_222_] _183_ d_lut_INVX1
AAOI21X1_20 [_142_ _183_ _233_] _184_ d_lut_AOI21X1
AAOI21X1_21 [_197_ _198_ _207_] _185_ d_lut_AOI21X1
ANAND3X1_21 [_185_ _221_ _128_] _186_ d_lut_NAND3X1
AAOI21X1_22 [_184_ _186_ _179_] _187_ d_lut_AOI21X1
AOAI21X1_22 [_162_ _136_ _166_] _188_ d_lut_OAI21X1
AOAI21X1_23 [_187_ _188_ _181_] _189_ d_lut_OAI21X1
AXOR2X1_11 [vdd bloque_bytes_87_] _190_ d_lut_XOR2X1
AXNOR2X1_11 [_190_ micro_ucr_hash1.a_0__7_] _191_ d_lut_XNOR2X1
AXNOR2X1_12 [_191_ _172_] _192_ d_lut_XNOR2X1
ANAND3X1_22 [_175_ _192_ _189_] _193_ d_lut_NAND3X1
AINVX1_20 [_175_] _194_ d_lut_INVX1
AINVX1_21 [_192_] _195_ d_lut_INVX1
AOAI21X1_24 [_178_ _194_ _195_] _196_ d_lut_OAI21X1
ANAND2X1_38 [_193_ _196_] micro_ucr_hash1.c_1__7_ d_lut_NAND2X1
AXOR2X1_12 [micro_ucr_hash1.b_2__4_ gnd] micro_ucr_hash1.a_2__0_ d_lut_XOR2X1
AXOR2X1_13 [micro_ucr_hash1.b_2__5_ gnd] micro_ucr_hash1.a_2__1_ d_lut_XOR2X1
AXOR2X1_14 [micro_ucr_hash1.b_2__6_ gnd] micro_ucr_hash1.a_2__2_ d_lut_XOR2X1
AXOR2X1_15 [micro_ucr_hash1.b_2__7_ gnd] micro_ucr_hash1.a_2__3_ d_lut_XOR2X1
AXOR2X1_16 [micro_ucr_hash1.c_1__4_ micro_ucr_hash1.b_1__4_] micro_ucr_hash1.a_2__4_ d_lut_XOR2X1
AXOR2X1_17 [micro_ucr_hash1.c_1__5_ micro_ucr_hash1.b_1__5_] micro_ucr_hash1.a_2__5_ d_lut_XOR2X1
AXOR2X1_18 [micro_ucr_hash1.c_1__6_ micro_ucr_hash1.b_1__6_] micro_ucr_hash1.a_2__6_ d_lut_XOR2X1
AXOR2X1_19 [micro_ucr_hash1.c_1__7_ micro_ucr_hash1.b_1__7_] micro_ucr_hash1.a_2__7_ d_lut_XOR2X1
AINVX2_14 [bloque_bytes_72_] _306_ d_lut_INVX2
AXNOR2X1_13 [gnd micro_ucr_hash1.a_1__0_] _307_ d_lut_XNOR2X1
AXNOR2X1_14 [_307_ _306_] micro_ucr_hash1.b_3__4_ d_lut_XNOR2X1
ANAND2X1_39 [_306_ _307_] _308_ d_lut_NAND2X1
AOR2X2_9 [gnd micro_ucr_hash1.a_1__1_] _309_ d_lut_OR2X2
ANAND2X1_40 [gnd micro_ucr_hash1.a_1__1_] _310_ d_lut_NAND2X1
ANAND3X1_23 [bloque_bytes_73_ _310_ _309_] _311_ d_lut_NAND3X1
AINVX1_22 [bloque_bytes_73_] _312_ d_lut_INVX1
ANOR2X1_28 [gnd micro_ucr_hash1.a_1__1_] _313_ d_lut_NOR2X1
AAND2X2_8 [gnd micro_ucr_hash1.a_1__1_] _314_ d_lut_AND2X2
AOAI21X1_25 [_314_ _313_ _312_] _315_ d_lut_OAI21X1
ANAND2X1_41 [_315_ _311_] _316_ d_lut_NAND2X1
AXNOR2X1_15 [_316_ _308_] micro_ucr_hash1.b_3__5_ d_lut_XNOR2X1
ANAND3X1_24 [_311_ _315_ _308_] _317_ d_lut_NAND3X1
ANOR3X1_27 [_312_ _313_ _314_] _318_ d_lut_NOR3X1
AINVX1_23 [bloque_bytes_74_] _319_ d_lut_INVX1
ANOR2X1_29 [gnd micro_ucr_hash1.a_1__2_] _320_ d_lut_NOR2X1
AAND2X2_9 [gnd micro_ucr_hash1.a_1__2_] _321_ d_lut_AND2X2
ANOR3X1_28 [_319_ _320_ _321_] _322_ d_lut_NOR3X1
AOR2X2_10 [gnd micro_ucr_hash1.a_1__2_] _323_ d_lut_OR2X2
ANAND2X1_42 [gnd micro_ucr_hash1.a_1__2_] _324_ d_lut_NAND2X1
AAOI21X1_23 [_324_ _323_ bloque_bytes_74_] _325_ d_lut_AOI21X1
AOAI21X1_26 [_322_ _325_ _318_] _326_ d_lut_OAI21X1
ANAND3X1_25 [bloque_bytes_74_ _324_ _323_] _327_ d_lut_NAND3X1
AOAI21X1_27 [_321_ _320_ _319_] _328_ d_lut_OAI21X1
ANAND3X1_26 [_328_ _311_ _327_] _329_ d_lut_NAND3X1
ANAND2X1_43 [_329_ _326_] _330_ d_lut_NAND2X1
AXNOR2X1_16 [_330_ _317_] micro_ucr_hash1.b_3__6_ d_lut_XNOR2X1
ANAND3X1_27 [_327_ _328_ _318_] _331_ d_lut_NAND3X1
AOAI21X1_28 [_322_ _325_ _311_] _332_ d_lut_OAI21X1
ANAND2X1_44 [_331_ _332_] _333_ d_lut_NAND2X1
AOAI21X1_29 [_333_ _317_ _331_] _334_ d_lut_OAI21X1
AINVX1_24 [bloque_bytes_75_] _335_ d_lut_INVX1
ANOR2X1_30 [gnd micro_ucr_hash1.a_1__3_] _336_ d_lut_NOR2X1
AAND2X2_10 [gnd micro_ucr_hash1.a_1__3_] _337_ d_lut_AND2X2
AOAI21X1_30 [_337_ _336_ _335_] _338_ d_lut_OAI21X1
AOR2X2_11 [gnd micro_ucr_hash1.a_1__3_] _339_ d_lut_OR2X2
ANAND2X1_45 [gnd micro_ucr_hash1.a_1__3_] _340_ d_lut_NAND2X1
ANAND3X1_28 [bloque_bytes_75_ _340_ _339_] _341_ d_lut_NAND3X1
AAOI21X1_24 [_338_ _341_ _327_] _342_ d_lut_AOI21X1
ANAND3X1_29 [_335_ _340_ _339_] _343_ d_lut_NAND3X1
AOAI21X1_31 [_337_ _336_ bloque_bytes_75_] _344_ d_lut_OAI21X1
AAOI21X1_25 [_344_ _343_ _322_] _345_ d_lut_AOI21X1
ANOR2X1_31 [_342_ _345_] _237_ d_lut_NOR2X1
AXOR2X1_20 [_334_ _237_] micro_ucr_hash1.b_3__7_ d_lut_XOR2X1
AINVX1_25 [bloque_bytes_76_] _238_ d_lut_INVX1
AOR2X2_12 [micro_ucr_hash1.b_1__4_ micro_ucr_hash1.a_1__4_] _239_ d_lut_OR2X2
ANAND2X1_46 [micro_ucr_hash1.b_1__4_ micro_ucr_hash1.a_1__4_] _240_ d_lut_NAND2X1
ANAND3X1_30 [_238_ _240_ _239_] _241_ d_lut_NAND3X1
ANOR2X1_32 [micro_ucr_hash1.b_1__4_ micro_ucr_hash1.a_1__4_] _242_ d_lut_NOR2X1
AAND2X2_11 [micro_ucr_hash1.b_1__4_ micro_ucr_hash1.a_1__4_] _243_ d_lut_AND2X2
AOAI21X1_32 [_243_ _242_ bloque_bytes_76_] _244_ d_lut_OAI21X1
ANAND3X1_31 [_338_ _241_ _244_] _245_ d_lut_NAND3X1
AAOI21X1_26 [_340_ _339_ bloque_bytes_75_] _246_ d_lut_AOI21X1
AOAI21X1_33 [_243_ _242_ _238_] _247_ d_lut_OAI21X1
ANAND3X1_32 [bloque_bytes_76_ _240_ _239_] _248_ d_lut_NAND3X1
ANAND3X1_33 [_247_ _248_ _246_] _249_ d_lut_NAND3X1
AAND2X2_12 [_249_ _245_] _250_ d_lut_AND2X2
AINVX2_15 [_345_] _251_ d_lut_INVX2
ANOR2X1_33 [_325_ _322_] _252_ d_lut_NOR2X1
AAOI21X1_27 [_318_ _252_ _342_] _253_ d_lut_AOI21X1
AOAI21X1_34 [_333_ _317_ _253_] _254_ d_lut_OAI21X1
ANAND2X1_47 [_251_ _254_] _255_ d_lut_NAND2X1
AXNOR2X1_17 [_255_ _250_] micro_ucr_hash1.c_2__4_ d_lut_XNOR2X1
ANAND2X1_48 [_245_ _249_] _256_ d_lut_NAND2X1
AOAI21X1_35 [_255_ _256_ _245_] _257_ d_lut_OAI21X1
AINVX1_26 [bloque_bytes_77_] _258_ d_lut_INVX1
AOR2X2_13 [micro_ucr_hash1.b_1__5_ micro_ucr_hash1.a_1__5_] _259_ d_lut_OR2X2
ANAND2X1_49 [micro_ucr_hash1.b_1__5_ micro_ucr_hash1.a_1__5_] _260_ d_lut_NAND2X1
ANAND3X1_34 [_258_ _260_ _259_] _261_ d_lut_NAND3X1
ANOR2X1_34 [micro_ucr_hash1.b_1__5_ micro_ucr_hash1.a_1__5_] _262_ d_lut_NOR2X1
AAND2X2_13 [micro_ucr_hash1.b_1__5_ micro_ucr_hash1.a_1__5_] _263_ d_lut_AND2X2
AOAI21X1_36 [_263_ _262_ bloque_bytes_77_] _264_ d_lut_OAI21X1
ANAND3X1_35 [_247_ _264_ _261_] _265_ d_lut_NAND3X1
AAOI21X1_28 [_240_ _239_ bloque_bytes_76_] _266_ d_lut_AOI21X1
ANAND3X1_36 [bloque_bytes_77_ _260_ _259_] _267_ d_lut_NAND3X1
AOAI21X1_37 [_263_ _262_ _258_] _268_ d_lut_OAI21X1
ANAND3X1_37 [_268_ _267_ _266_] _269_ d_lut_NAND3X1
ANAND2X1_50 [_265_ _269_] _270_ d_lut_NAND2X1
AINVX2_16 [_270_] _271_ d_lut_INVX2
AXNOR2X1_18 [_257_ _271_] micro_ucr_hash1.c_2__5_ d_lut_XNOR2X1
AAOI21X1_29 [_265_ _269_ _256_] _272_ d_lut_AOI21X1
ANAND3X1_38 [_251_ _272_ _254_] _273_ d_lut_NAND3X1
ANAND2X1_51 [_268_ _267_] _274_ d_lut_NAND2X1
AOR2X2_14 [_274_ _266_] _275_ d_lut_OR2X2
AINVX1_27 [_275_] _276_ d_lut_INVX1
AAOI21X1_30 [_266_ _274_ _245_] _277_ d_lut_AOI21X1
ANOR2X1_35 [_277_ _276_] _278_ d_lut_NOR2X1
AINVX1_28 [bloque_bytes_78_] _279_ d_lut_INVX1
AXNOR2X1_19 [micro_ucr_hash1.b_1__6_ micro_ucr_hash1.a_1__6_] _280_ d_lut_XNOR2X1
AOR2X2_15 [_280_ _279_] _281_ d_lut_OR2X2
ANAND2X1_52 [_279_ _280_] _282_ d_lut_NAND2X1
ANAND2X1_53 [_282_ _281_] _283_ d_lut_NAND2X1
AOR2X2_16 [_283_ _267_] _284_ d_lut_OR2X2
ANAND2X1_54 [_267_ _283_] _285_ d_lut_NAND2X1
ANAND2X1_55 [_285_ _284_] _286_ d_lut_NAND2X1
AAOI21X1_31 [_278_ _273_ _286_] _287_ d_lut_AOI21X1
ANAND2X1_56 [_270_ _250_] _288_ d_lut_NAND2X1
AOAI21X1_38 [_255_ _288_ _278_] _289_ d_lut_OAI21X1
AINVX1_29 [_286_] _290_ d_lut_INVX1
ANOR2X1_36 [_290_ _289_] _291_ d_lut_NOR2X1
ANOR2X1_37 [_287_ _291_] micro_ucr_hash1.c_2__6_ d_lut_NOR2X1
AINVX1_30 [_331_] _292_ d_lut_INVX1
AAOI21X1_32 [_251_ _292_ _342_] _293_ d_lut_AOI21X1
AAOI21X1_33 [_306_ _307_ _316_] _294_ d_lut_AOI21X1
ANAND3X1_39 [_294_ _330_ _237_] _295_ d_lut_NAND3X1
AAOI21X1_34 [_293_ _295_ _288_] _296_ d_lut_AOI21X1
AOAI21X1_39 [_271_ _245_ _275_] _297_ d_lut_OAI21X1
AOAI21X1_40 [_296_ _297_ _290_] _298_ d_lut_OAI21X1
AXOR2X1_21 [micro_ucr_hash1.b_1__7_ bloque_bytes_79_] _299_ d_lut_XOR2X1
AXNOR2X1_20 [_299_ micro_ucr_hash1.a_1__7_] _300_ d_lut_XNOR2X1
AXNOR2X1_21 [_300_ _281_] _301_ d_lut_XNOR2X1
ANAND3X1_40 [_284_ _301_ _298_] _302_ d_lut_NAND3X1
AINVX1_31 [_284_] _303_ d_lut_INVX1
AINVX1_32 [_301_] _304_ d_lut_INVX1
AOAI21X1_41 [_287_ _303_ _304_] _305_ d_lut_OAI21X1
ANAND2X1_57 [_302_ _305_] micro_ucr_hash1.c_2__7_ d_lut_NAND2X1
AXOR2X1_22 [micro_ucr_hash1.b_3__4_ gnd] micro_ucr_hash1.a_3__0_ d_lut_XOR2X1
AXOR2X1_23 [micro_ucr_hash1.b_3__5_ gnd] micro_ucr_hash1.a_3__1_ d_lut_XOR2X1
AXOR2X1_24 [micro_ucr_hash1.b_3__6_ gnd] micro_ucr_hash1.a_3__2_ d_lut_XOR2X1
AXOR2X1_25 [micro_ucr_hash1.b_3__7_ gnd] micro_ucr_hash1.a_3__3_ d_lut_XOR2X1
AXOR2X1_26 [micro_ucr_hash1.c_2__4_ micro_ucr_hash1.b_2__4_] micro_ucr_hash1.a_3__4_ d_lut_XOR2X1
AXOR2X1_27 [micro_ucr_hash1.c_2__5_ micro_ucr_hash1.b_2__5_] micro_ucr_hash1.a_3__5_ d_lut_XOR2X1