*SPEF "IEEE 1481.1999"
*DESIGN "modulo_rendimiento"
*DATE "10:24:19 Thursday July 01, 2021"
*VENDOR "unknown"
*PROGRAM "qrouter"
*VERSION "unknown"
*DESIGN_FLOW "qflow"
*DIVIDER /
*DELIMITER :
*BUS_DELIMITER <>
*T_UNIT 1 PS
*C_UNIT 1 FF
*R_UNIT 1 OHM
*L_UNIT 1 HENRY

*NAME_MAP
*1 _3378_
*2 NOR2X1_399
*3 INVX2_83
*4 AND2X2_172
*5 OAI21X1_576
*6 AOI21X1_333
*7 AND2X2_173
*8 NAND2X1_630
*9 NAND2X1_626
*10 AND2X2_171
*11 AOI21X1_335
*12 AOI21X1_334
*13 clk_hier0_bF_buf6
*14 BUFX4_1
*15 CLKBUF1_11
*16 CLKBUF1_31
*17 CLKBUF1_17
*18 CLKBUF1_12
*19 CLKBUF1_44
*20 CLKBUF1_7
*21 CLKBUF1_33
*22 CLKBUF1_27
*23 clk_hier0_bF_buf5
*24 BUFX4_2
*25 CLKBUF1_35
*26 CLKBUF1_28
*27 CLKBUF1_42
*28 CLKBUF1_41
*29 CLKBUF1_48
*30 CLKBUF1_43
*31 CLKBUF1_13
*32 CLKBUF1_4
*33 clk_bF_buf50
*34 CLKBUF1_1
*35 DFFPOSX1_174
*36 DFFPOSX1_171
*37 DFFPOSX1_131
*38 DFFPOSX1_148
*39 DFFPOSX1_173
*40 DFFPOSX1_172
*41 DFFPOSX1_144
*42 DFFPOSX1_145
*43 clk_bF_buf49
*44 CLKBUF1_2
*45 DFFPOSX1_287
*46 DFFPOSX1_292
*47 DFFPOSX1_314
*48 DFFPOSX1_351
*49 DFFPOSX1_243
*50 DFFPOSX1_365
*51 DFFPOSX1_328
*52 DFFPOSX1_348
*53 clk_bF_buf48
*54 CLKBUF1_3
*55 DFFPOSX1_218
*56 DFFPOSX1_211
*57 DFFPOSX1_42
*58 DFFPOSX1_74
*59 DFFPOSX1_46
*60 DFFPOSX1_43
*61 DFFPOSX1_41
*62 DFFPOSX1_75
*63 clk_bF_buf47
*64 CLKBUF1_4
*65 DFFPOSX1_3
*66 DFFPOSX1_5
*67 DFFPOSX1_93
*68 DFFPOSX1_97
*69 DFFPOSX1_90
*70 DFFPOSX1_7
*71 DFFPOSX1_2
*72 DFFPOSX1_9
*73 clk_bF_buf46
*74 CLKBUF1_5
*75 DFFPOSX1_114
*76 DFFPOSX1_124
*77 DFFPOSX1_136
*78 DFFPOSX1_126
*79 DFFPOSX1_122
*80 DFFPOSX1_135
*81 DFFPOSX1_128
*82 DFFPOSX1_121
*83 clk_bF_buf45
*84 CLKBUF1_6
*85 DFFPOSX1_85
*86 DFFPOSX1_82
*87 DFFPOSX1_84
*88 DFFPOSX1_57
*89 DFFPOSX1_86
*90 DFFPOSX1_88
*91 DFFPOSX1_49
*92 DFFPOSX1_225
*93 clk_bF_buf44
*94 CLKBUF1_7
*95 DFFPOSX1_159
*96 DFFPOSX1_143
*97 DFFPOSX1_142
*98 DFFPOSX1_160
*99 DFFPOSX1_168
*100 DFFPOSX1_161
*101 DFFPOSX1_140
*102 DFFPOSX1_141
*103 clk_bF_buf43
*104 CLKBUF1_8
*105 DFFPOSX1_326
*106 DFFPOSX1_363
*107 DFFPOSX1_307
*108 DFFPOSX1_347
*109 DFFPOSX1_323
*110 DFFPOSX1_339
*111 DFFPOSX1_315
*112 DFFPOSX1_290
*113 clk_bF_buf42
*114 CLKBUF1_9
*115 DFFPOSX1_31
*116 DFFPOSX1_239
*117 DFFPOSX1_201
*118 DFFPOSX1_224
*119 DFFPOSX1_32
*120 DFFPOSX1_39
*121 DFFPOSX1_78
*122 DFFPOSX1_61
*123 clk_bF_buf41
*124 CLKBUF1_10
*125 DFFPOSX1_229
*126 DFFPOSX1_212
*127 DFFPOSX1_214
*128 DFFPOSX1_230
*129 DFFPOSX1_194
*130 DFFPOSX1_195
*131 DFFPOSX1_196
*132 DFFPOSX1_199
*133 clk_bF_buf40
*134 CLKBUF1_11
*135 DFFPOSX1_265
*136 DFFPOSX1_263
*137 DFFPOSX1_297
*138 DFFPOSX1_250
*139 DFFPOSX1_270
*140 DFFPOSX1_256
*141 DFFPOSX1_264
*142 DFFPOSX1_255
*143 clk_bF_buf39
*144 CLKBUF1_12
*145 DFFPOSX1_169
*146 DFFPOSX1_185
*147 DFFPOSX1_176
*148 DFFPOSX1_147
*149 DFFPOSX1_146
*150 DFFPOSX1_175
*151 DFFPOSX1_162
*152 DFFPOSX1_163
*153 _3410_
*154 NOR3X1_90
*155 NAND3X1_502
*156 AOI21X1_349
*157 NAND3X1_500
*158 AOI21X1_345
*159 OAI21X1_584
*160 AOI21X1_342
*161 AOI21X1_344
*162 AOI21X1_343
*163 clk
*164 BUFX4_2
*165 BUFX4_3
*166 BUFX4_7
*167 BUFX4_6
*168 BUFX4_4
*169 BUFX4_5
*170 BUFX4_1
*171 clk_hier0_bF_buf4
*172 BUFX4_3
*173 CLKBUF1_30
*174 CLKBUF1_24
*175 CLKBUF1_26
*176 CLKBUF1_14
*177 CLKBUF1_36
*178 CLKBUF1_3
*179 CLKBUF1_10
*180 clk_hier0_bF_buf3
*181 BUFX4_4
*182 CLKBUF1_22
*183 CLKBUF1_19
*184 CLKBUF1_40
*185 CLKBUF1_51
*186 CLKBUF1_45
*187 CLKBUF1_18
*188 CLKBUF1_21
*189 clk_hier0_bF_buf2
*190 BUFX4_5
*191 CLKBUF1_8
*192 CLKBUF1_39
*193 CLKBUF1_46
*194 CLKBUF1_34
*195 CLKBUF1_32
*196 CLKBUF1_23
*197 CLKBUF1_2
*198 clk_hier0_bF_buf1
*199 BUFX4_6
*200 CLKBUF1_9
*201 CLKBUF1_20
*202 CLKBUF1_37
*203 CLKBUF1_38
*204 CLKBUF1_1
*205 CLKBUF1_29
*206 CLKBUF1_47
*207 clk_hier0_bF_buf0
*208 BUFX4_7
*209 CLKBUF1_15
*210 CLKBUF1_16
*211 CLKBUF1_5
*212 CLKBUF1_6
*213 CLKBUF1_50
*214 CLKBUF1_49
*215 CLKBUF1_25
*216 clk_bF_buf38
*217 CLKBUF1_13
*218 DFFPOSX1_91
*219 DFFPOSX1_228
*220 DFFPOSX1_356
*221 DFFPOSX1_354
*222 DFFPOSX1_359
*223 DFFPOSX1_358
*224 DFFPOSX1_179
*225 clk_bF_buf37
*226 CLKBUF1_14
*227 DFFPOSX1_50
*228 DFFPOSX1_232
*229 DFFPOSX1_223
*230 DFFPOSX1_38
*231 DFFPOSX1_83
*232 DFFPOSX1_217
*233 DFFPOSX1_53
*234 clk_bF_buf36
*235 CLKBUF1_15
*236 DFFPOSX1_81
*237 DFFPOSX1_40
*238 DFFPOSX1_87
*239 DFFPOSX1_71
*240 DFFPOSX1_72
*241 DFFPOSX1_58
*242 DFFPOSX1_48
*243 clk_bF_buf35
*244 CLKBUF1_16
*245 DFFPOSX1_125
*246 DFFPOSX1_137
*247 DFFPOSX1_123
*248 DFFPOSX1_191
*249 DFFPOSX1_80
*250 DFFPOSX1_89
*251 DFFPOSX1_189
*252 clk_bF_buf34
*253 CLKBUF1_17
*254 DFFPOSX1_261
*255 DFFPOSX1_274
*256 DFFPOSX1_260
*257 DFFPOSX1_298
*258 DFFPOSX1_288
*259 DFFPOSX1_304
*260 DFFPOSX1_259
*261 clk_bF_buf33
*262 CLKBUF1_18
*263 DFFPOSX1_266
*264 DFFPOSX1_226
*265 DFFPOSX1_36
*266 DFFPOSX1_35
*267 DFFPOSX1_181
*268 DFFPOSX1_183
*269 DFFPOSX1_34
*270 clk_bF_buf32
*271 CLKBUF1_19
*272 DFFPOSX1_368
*273 DFFPOSX1_332
*274 DFFPOSX1_344
*275 DFFPOSX1_350
*276 DFFPOSX1_336
*277 DFFPOSX1_335
*278 DFFPOSX1_282
*279 clk_bF_buf31
*280 CLKBUF1_20
*281 DFFPOSX1_33
*282 DFFPOSX1_26
*283 DFFPOSX1_27
*284 DFFPOSX1_29
*285 DFFPOSX1_30
*286 DFFPOSX1_238
*287 DFFPOSX1_28
*288 clk_bF_buf30
*289 CLKBUF1_21
*290 DFFPOSX1_296
*291 DFFPOSX1_244
*292 DFFPOSX1_242
*293 DFFPOSX1_247
*294 DFFPOSX1_248
*295 DFFPOSX1_249
*296 DFFPOSX1_245
*297 clk_bF_buf29
*298 CLKBUF1_22
*299 DFFPOSX1_369
*300 DFFPOSX1_364
*301 DFFPOSX1_361
*302 DFFPOSX1_345
*303 DFFPOSX1_367
*304 DFFPOSX1_352
*305 DFFPOSX1_337
*306 clk_bF_buf28
*307 CLKBUF1_23
*308 DFFPOSX1_284
*309 DFFPOSX1_285
*310 DFFPOSX1_312
*311 DFFPOSX1_291
*312 DFFPOSX1_294
*313 DFFPOSX1_313
*314 DFFPOSX1_286
*315 clk_bF_buf27
*316 CLKBUF1_24
*317 DFFPOSX1_54
*318 DFFPOSX1_216
*319 DFFPOSX1_73
*320 DFFPOSX1_55
*321 DFFPOSX1_79
*322 DFFPOSX1_37
*323 DFFPOSX1_56
*324 clk_bF_buf26
*325 CLKBUF1_25
*326 DFFPOSX1_115
*327 DFFPOSX1_116
*328 DFFPOSX1_117
*329 DFFPOSX1_118
*330 DFFPOSX1_119
*331 DFFPOSX1_120
*332 DFFPOSX1_129
*333 clk_bF_buf25
*334 CLKBUF1_26
*335 DFFPOSX1_47
*336 DFFPOSX1_67
*337 DFFPOSX1_70
*338 DFFPOSX1_68
*339 DFFPOSX1_66
*340 DFFPOSX1_241
*341 DFFPOSX1_240
*342 clk_bF_buf24
*343 CLKBUF1_27
*344 DFFPOSX1_278
*345 DFFPOSX1_279
*346 DFFPOSX1_305
*347 DFFPOSX1_277
*348 DFFPOSX1_268
*349 DFFPOSX1_275
*350 DFFPOSX1_289
*351 clk_bF_buf23
*352 CLKBUF1_28
*353 DFFPOSX1_110
*354 DFFPOSX1_16
*355 DFFPOSX1_112
*356 DFFPOSX1_1
*357 DFFPOSX1_104
*358 DFFPOSX1_105
*359 DFFPOSX1_109
*360 clk_bF_buf22
*361 CLKBUF1_29
*362 DFFPOSX1_177
*363 DFFPOSX1_184
*364 DFFPOSX1_149
*365 DFFPOSX1_152
*366 DFFPOSX1_153
*367 DFFPOSX1_150
*368 DFFPOSX1_151
*369 clk_bF_buf21
*370 CLKBUF1_30
*371 DFFPOSX1_69
*372 DFFPOSX1_77
*373 DFFPOSX1_45
*374 DFFPOSX1_233
*375 DFFPOSX1_219
*376 DFFPOSX1_51
*377 DFFPOSX1_76
*378 clk_bF_buf20
*379 CLKBUF1_31
*380 DFFPOSX1_281
*381 DFFPOSX1_269
*382 DFFPOSX1_262
*383 DFFPOSX1_254
*384 DFFPOSX1_251
*385 DFFPOSX1_280
*386 DFFPOSX1_271
*387 clk_bF_buf19
*388 CLKBUF1_32
*389 DFFPOSX1_293
*390 DFFPOSX1_267
*391 DFFPOSX1_276
*392 DFFPOSX1_258
*393 DFFPOSX1_283
*394 DFFPOSX1_295
*395 DFFPOSX1_320
*396 clk_bF_buf18
*397 CLKBUF1_33
*398 DFFPOSX1_272
*399 DFFPOSX1_155
*400 DFFPOSX1_156
*401 DFFPOSX1_139
*402 DFFPOSX1_138
*403 DFFPOSX1_157
*404 DFFPOSX1_158
*405 clk_bF_buf17
*406 CLKBUF1_34
*407 DFFPOSX1_301
*408 DFFPOSX1_321
*409 DFFPOSX1_299
*410 DFFPOSX1_311
*411 DFFPOSX1_303
*412 DFFPOSX1_300
*413 DFFPOSX1_302
*414 clk_bF_buf16
*415 CLKBUF1_35
*416 DFFPOSX1_113
*417 DFFPOSX1_6
*418 DFFPOSX1_4
*419 DFFPOSX1_95
*420 DFFPOSX1_96
*421 DFFPOSX1_92
*422 DFFPOSX1_94
*423 clk_bF_buf15
*424 CLKBUF1_36
*425 DFFPOSX1_200
*426 DFFPOSX1_44
*427 DFFPOSX1_221
*428 DFFPOSX1_220
*429 DFFPOSX1_52
*430 DFFPOSX1_210
*431 DFFPOSX1_231
*432 clk_bF_buf14
*433 CLKBUF1_37
*434 DFFPOSX1_60
*435 DFFPOSX1_170
*436 DFFPOSX1_130
*437 DFFPOSX1_133
*438 DFFPOSX1_132
*439 DFFPOSX1_134
*440 DFFPOSX1_193
*441 clk_bF_buf13
*442 CLKBUF1_38
*443 DFFPOSX1_127
*444 DFFPOSX1_64
*445 DFFPOSX1_62
*446 DFFPOSX1_59
*447 DFFPOSX1_65
*448 DFFPOSX1_63
*449 DFFPOSX1_192
*450 clk_bF_buf12
*451 CLKBUF1_39
*452 DFFPOSX1_316
*453 DFFPOSX1_308
*454 DFFPOSX1_318
*455 DFFPOSX1_310
*456 DFFPOSX1_319
*457 DFFPOSX1_309
*458 DFFPOSX1_317
*459 clk_bF_buf11
*460 CLKBUF1_40
*461 DFFPOSX1_341
*462 DFFPOSX1_355
*463 DFFPOSX1_362
*464 DFFPOSX1_357
*465 DFFPOSX1_227
*466 DFFPOSX1_178
*467 DFFPOSX1_182
*468 clk_bF_buf10
*469 CLKBUF1_41
*470 DFFPOSX1_99
*471 DFFPOSX1_11
*472 DFFPOSX1_198
*473 DFFPOSX1_10
*474 DFFPOSX1_197
*475 DFFPOSX1_98
*476 DFFPOSX1_18
*477 clk_bF_buf9
*478 CLKBUF1_42
*479 DFFPOSX1_107
*480 DFFPOSX1_106
*481 DFFPOSX1_101
*482 DFFPOSX1_21
*483 DFFPOSX1_19
*484 DFFPOSX1_102
*485 DFFPOSX1_103
*486 clk_bF_buf8
*487 CLKBUF1_43
*488 DFFPOSX1_14
*489 DFFPOSX1_22
*490 DFFPOSX1_24
*491 DFFPOSX1_111
*492 DFFPOSX1_8
*493 DFFPOSX1_23
*494 DFFPOSX1_25
*495 clk_bF_buf7
*496 CLKBUF1_44
*497 DFFPOSX1_154
*498 DFFPOSX1_166
*499 DFFPOSX1_252
*500 DFFPOSX1_167
*501 DFFPOSX1_165
*502 DFFPOSX1_253
*503 DFFPOSX1_273
*504 clk_bF_buf6
*505 CLKBUF1_45
*506 DFFPOSX1_340
*507 DFFPOSX1_334
*508 DFFPOSX1_343
*509 DFFPOSX1_342
*510 DFFPOSX1_333
*511 DFFPOSX1_331
*512 DFFPOSX1_322
*513 clk_bF_buf5
*514 CLKBUF1_46
*515 DFFPOSX1_329
*516 DFFPOSX1_325
*517 DFFPOSX1_327
*518 DFFPOSX1_349
*519 DFFPOSX1_324
*520 DFFPOSX1_306
*521 DFFPOSX1_353
*522 clk_bF_buf4
*523 CLKBUF1_47
*524 DFFPOSX1_236
*525 DFFPOSX1_235
*526 DFFPOSX1_257
*527 DFFPOSX1_164
*528 DFFPOSX1_208
*529 DFFPOSX1_234
*530 DFFPOSX1_237
*531 clk_bF_buf3
*532 CLKBUF1_48
*533 DFFPOSX1_108
*534 DFFPOSX1_15
*535 DFFPOSX1_20
*536 DFFPOSX1_12
*537 DFFPOSX1_17
*538 DFFPOSX1_13
*539 DFFPOSX1_100
*540 clk_bF_buf2
*541 CLKBUF1_49
*542 DFFPOSX1_187
*543 DFFPOSX1_186
*544 DFFPOSX1_204
*545 DFFPOSX1_209
*546 DFFPOSX1_203
*547 DFFPOSX1_190
*548 DFFPOSX1_188
*549 clk_bF_buf1
*550 CLKBUF1_50
*551 DFFPOSX1_202
*552 DFFPOSX1_222
*553 DFFPOSX1_215
*554 DFFPOSX1_205
*555 DFFPOSX1_213
*556 DFFPOSX1_207
*557 DFFPOSX1_206
*558 clk_bF_buf0
*559 CLKBUF1_51
*560 DFFPOSX1_338
*561 DFFPOSX1_180
*562 DFFPOSX1_366
*563 DFFPOSX1_330
*564 DFFPOSX1_346
*565 DFFPOSX1_360
*566 DFFPOSX1_246
*567 target[5]
*568 OAI22X1_9
*569 INVX4_1
*570 OAI22X1_2
*571 NOR2X1_6
*572 NAND2X1_8
*573 AOI22X1_1
*574 AOI22X1_4
*575 micro_ucr_hash1_b[1][4]
*576 XNOR2X1_252
*577 BUFX2_151
*578 XOR2X1_16
*579 NAND2X1_46
*580 OR2X2_12
*581 AND2X2_11
*582 NOR2X1_32
*583 XOR2X1_2
*584 micro_ucr_hash1_b[1][5]
*585 XNOR2X1_253
*586 BUFX2_152
*587 OR2X2_13
*588 NAND2X1_49
*589 AND2X2_13
*590 NOR2X1_34
*591 XOR2X1_17
*592 XOR2X1_3
*593 micro_ucr_hash1_b[2][4]
*594 XNOR2X1_5
*595 XOR2X1_26
*596 BUFX2_195
*597 NOR2X1_42
*598 OR2X2_20
*599 AND2X2_17
*600 NAND2X1_65
*601 XOR2X1_12
*602 micro_ucr_hash1_b[2][5]
*603 XNOR2X1_6
*604 XOR2X1_27
*605 BUFX2_196
*606 OR2X2_21
*607 NAND2X1_68
*608 NOR2X1_44
*609 AND2X2_19
*610 XOR2X1_13
*611 micro_ucr_hash1_b[3][4]
*612 XNOR2X1_14
*613 BUFX2_239
*614 NOR2X1_52
*615 AND2X2_23
*616 OR2X2_28
*617 NAND2X1_84
*618 XOR2X1_22
*619 XOR2X1_36
*620 micro_ucr_hash1_b[3][5]
*621 XNOR2X1_15
*622 OR2X2_29
*623 AND2X2_25
*624 NOR2X1_54
*625 NAND2X1_87
*626 XOR2X1_23
*627 BUFX2_240
*628 XOR2X1_37
*629 micro_ucr_hash1_b[4][4]
*630 XNOR2X1_23
*631 OR2X2_36
*632 NAND2X1_103
*633 XOR2X1_32
*634 NOR2X1_62
*635 AND2X2_29
*636 BUFX2_247
*637 XOR2X1_46
*638 micro_ucr_hash1_b[4][5]
*639 XNOR2X1_24
*640 XOR2X1_33
*641 BUFX2_248
*642 AND2X2_31
*643 NOR2X1_64
*644 NAND2X1_106
*645 OR2X2_37
*646 XOR2X1_47
*647 micro_ucr_hash1_b[5][4]
*648 XNOR2X1_32
*649 XOR2X1_42
*650 XOR2X1_56
*651 BUFX2_251
*652 NAND2X1_122
*653 OR2X2_44
*654 NOR2X1_72
*655 AND2X2_35
*656 micro_ucr_hash1_b[5][5]
*657 XNOR2X1_33
*658 XOR2X1_43
*659 XOR2X1_57
*660 BUFX2_252
*661 AND2X2_37
*662 NAND2X1_125
*663 NOR2X1_74
*664 OR2X2_45
*665 micro_ucr_hash1_b[6][4]
*666 XNOR2X1_41
*667 BUFX2_255
*668 AND2X2_41
*669 OR2X2_52
*670 NAND2X1_141
*671 NOR2X1_82
*672 XOR2X1_66
*673 XOR2X1_52
*674 micro_ucr_hash1_b[6][5]
*675 XNOR2X1_42
*676 XOR2X1_67
*677 BUFX2_256
*678 OR2X2_53
*679 NAND2X1_144
*680 AND2X2_43
*681 NOR2X1_84
*682 XOR2X1_53
*683 micro_ucr_hash1_b[7][4]
*684 XNOR2X1_50
*685 XOR2X1_76
*686 BUFX2_259
*687 NAND2X1_160
*688 OR2X2_60
*689 NOR2X1_92
*690 AND2X2_47
*691 XOR2X1_62
*692 micro_ucr_hash1_b[7][5]
*693 XNOR2X1_51
*694 XOR2X1_77
*695 NAND2X1_163
*696 NOR2X1_94
*697 AND2X2_49
*698 XOR2X1_63
*699 OR2X2_61
*700 BUFX2_260
*701 micro_ucr_hash1_b[8][4]
*702 XNOR2X1_59
*703 AND2X2_53
*704 NOR2X1_102
*705 NAND2X1_179
*706 OR2X2_68
*707 XOR2X1_72
*708 XOR2X1_86
*709 BUFX2_263
*710 micro_ucr_hash1_b[8][5]
*711 XNOR2X1_60
*712 BUFX2_264
*713 NAND2X1_182
*714 OR2X2_69
*715 NOR2X1_104
*716 AND2X2_55
*717 XOR2X1_73
*718 XOR2X1_87
*719 micro_ucr_hash1_b[9][4]
*720 XNOR2X1_68
*721 BUFX2_267
*722 XOR2X1_82
*723 OR2X2_76
*724 NAND2X1_198
*725 NOR2X1_112
*726 AND2X2_59
*727 XOR2X1_96
*728 micro_ucr_hash1_b[9][5]
*729 XNOR2X1_69
*730 XOR2X1_83
*731 OR2X2_77
*732 NAND2X1_201
*733 AND2X2_61
*734 NOR2X1_114
*735 BUFX2_268
*736 XOR2X1_97
*737 micro_ucr_hash1_b[10][4]
*738 XNOR2X1_77
*739 BUFX2_271
*740 XOR2X1_92
*741 OR2X2_84
*742 NAND2X1_217
*743 AND2X2_65
*744 XOR2X1_106
*745 NOR2X1_122
*746 micro_ucr_hash1_b[10][5]
*747 XNOR2X1_78
*748 XOR2X1_93
*749 NAND2X1_220
*750 OR2X2_85
*751 NOR2X1_124
*752 AND2X2_67
*753 BUFX2_272
*754 XOR2X1_107
*755 micro_ucr_hash1_b[11][4]
*756 XNOR2X1_86
*757 BUFX2_155
*758 OR2X2_92
*759 NOR2X1_132
*760 NAND2X1_236
*761 AND2X2_71
*762 XOR2X1_116
*763 XOR2X1_102
*764 micro_ucr_hash1_b[11][5]
*765 XNOR2X1_87
*766 OR2X2_93
*767 NAND2X1_239
*768 XOR2X1_103
*769 XOR2X1_117
*770 NOR2X1_134
*771 AND2X2_73
*772 BUFX2_156
*773 micro_ucr_hash1_b[12][4]
*774 XNOR2X1_95
*775 OR2X2_100
*776 NAND2X1_255
*777 AND2X2_77
*778 NOR2X1_142
*779 XOR2X1_112
*780 XOR2X1_126
*781 BUFX2_159
*782 micro_ucr_hash1_b[12][5]
*783 XNOR2X1_96
*784 OR2X2_101
*785 NAND2X1_258
*786 AND2X2_79
*787 NOR2X1_144
*788 XOR2X1_113
*789 XOR2X1_127
*790 BUFX2_160
*791 micro_ucr_hash1_b[13][4]
*792 XNOR2X1_104
*793 BUFX2_163
*794 AND2X2_83
*795 NOR2X1_152
*796 OR2X2_108
*797 NAND2X1_274
*798 XOR2X1_122
*799 XOR2X1_136
*800 micro_ucr_hash1_b[13][5]
*801 XNOR2X1_105
*802 OR2X2_109
*803 NAND2X1_277
*804 AND2X2_85
*805 NOR2X1_154
*806 XOR2X1_123
*807 BUFX2_164
*808 XOR2X1_137
*809 micro_ucr_hash1_b[14][4]
*810 XNOR2X1_113
*811 XOR2X1_146
*812 BUFX2_167
*813 OR2X2_116
*814 NAND2X1_293
*815 AND2X2_89
*816 NOR2X1_162
*817 XOR2X1_132
*818 micro_ucr_hash1_b[14][5]
*819 XNOR2X1_114
*820 BUFX2_168
*821 AND2X2_91
*822 NOR2X1_164
*823 OR2X2_117
*824 NAND2X1_296
*825 XOR2X1_147
*826 XOR2X1_133
*827 micro_ucr_hash1_b[15][4]
*828 XNOR2X1_122
*829 AND2X2_95
*830 NOR2X1_172
*831 OR2X2_124
*832 NAND2X1_312
*833 XOR2X1_142
*834 XOR2X1_156
*835 BUFX2_171
*836 micro_ucr_hash1_b[15][5]
*837 XNOR2X1_123
*838 AND2X2_97
*839 NOR2X1_174
*840 OR2X2_125
*841 NAND2X1_315
*842 BUFX2_172
*843 XOR2X1_143
*844 XOR2X1_157
*845 _127__bF_buf4
*846 BUFX4_8
*847 MUX2X1_22
*848 MUX2X1_7
*849 BUFX2_25
*850 MUX2X1_21
*851 MUX2X1_23
*852 MUX2X1_15
*853 _127__bF_buf3
*854 BUFX4_9
*855 MUX2X1_19
*856 MUX2X1_16
*857 MUX2X1_12
*858 MUX2X1_11
*859 MUX2X1_14
*860 MUX2X1_13
*861 _127__bF_buf2
*862 BUFX4_10
*863 AOI21X1_10
*864 MUX2X1_20
*865 MUX2X1_18
*866 MUX2X1_10
*867 MUX2X1_9
*868 MUX2X1_17
*869 _127__bF_buf1
*870 BUFX4_11
*871 MUX2X1_5
*872 MUX2X1_2
*873 MUX2X1_3
*874 NOR3X1_89
*875 NOR2X1_381
*876 INVX1_486
*877 _3299__bF_buf4
*878 BUFX4_13
*879 NOR2X1_361
*880 NOR2X1_358
*881 NOR2X1_360
*882 NOR2X1_359
*883 NOR2X1_362
*884 AOI21X1_327
*885 _3299__bF_buf3
*886 BUFX4_14
*887 NOR3X1_88
*888 NOR2X1_371
*889 NOR2X1_365
*890 NOR2X1_370
*891 NOR3X1_87
*892 NOR2X1_364
*893 _3299__bF_buf2
*894 BUFX4_15
*895 NOR2X1_376
*896 NOR2X1_373
*897 AOI21X1_343
*898 NOR2X1_375
*899 NOR2X1_377
*900 NOR2X1_374
*901 _3299__bF_buf1
*902 BUFX4_16
*903 NOR2X1_368
*904 NOR2X1_367
*905 NOR2X1_366
*906 AOI21X1_334
*907 NOR2X1_363
*908 NOR2X1_369
*909 _3299__bF_buf0
*910 BUFX4_17
*911 NOR2X1_378
*912 NOR2X1_379
*913 NOR3X1_93
*914 NOR3X1_96
*915 NOR2X1_372
*916 AOI21X1_341
*917 reset
*918 BUFX4_33
*919 BUFX4_30
*920 BUFX4_31
*921 BUFX4_29
*922 BUFX4_32
*923 BUFX4_28
*924 reset_bF_buf5
*925 BUFX4_28
*926 AND2X2_160
*927 AND2X2_164
*928 OAI21X1_580
*929 INVX8_2
*930 OAI21X1_568
*931 NAND2X1_612
*932 reset_bF_buf4
*933 BUFX4_29
*934 NAND2X1_619
*935 OAI21X1_579
*936 AND2X2_166
*937 INVX8_1
*938 NAND2X1_627
*939 OAI21X1_578
*940 reset_bF_buf3
*941 BUFX4_30
*942 OAI21X1_565
*943 NAND2X1_621
*944 OAI21X1_588
*945 NAND2X1_635
*946 OAI21X1_587
*947 OAI21X1_582
*948 reset_bF_buf2
*949 BUFX4_31
*950 AND2X2_161
*951 OAI21X1_574
*952 OAI21X1_573
*953 AND2X2_165
*954 OAI21X1_575
*955 AND2X2_162
*956 reset_bF_buf1
*957 BUFX4_32
*958 OAI21X1_581
*959 AND2X2_163
*960 OAI21X1_576
*961 AND2X2_167
*962 OAI21X1_586
*963 OAI21X1_584
*964 reset_bF_buf0
*965 BUFX4_33
*966 OAI21X1_570
*967 OAI21X1_571
*968 OAI21X1_567
*969 AND2X2_158
*970 AND2X2_159
*971 OAI21X1_566
*972 target[4]
*973 AOI22X1_4
*974 OAI22X1_9
*975 INVX2_3
*976 OAI22X1_2
*977 AOI22X1_1
*978 NAND2X1_9
*979 micro_ucr_hash1_b[16][4]
*980 XNOR2X1_131
*981 XOR2X1_166
*982 OAI21X1_288
*983 OAI21X1_289
*984 INVX1_194
*985 BUFX2_175
*986 XOR2X1_152
*987 micro_ucr_hash1_b[16][5]
*988 XNOR2X1_132
*989 XOR2X1_167
*990 BUFX2_176
*991 OAI21X1_293
*992 NOR2X1_186
*993 OAI21X1_292
*994 XOR2X1_153
*995 micro_ucr_hash1_b[17][4]
*996 XNOR2X1_140
*997 OAI21X1_307
*998 OAI21X1_308
*999 INVX1_213
*1000 XOR2X1_162
*1001 BUFX2_179
*1002 XOR2X1_175
*1003 micro_ucr_hash1_b[17][5]
*1004 XNOR2X1_141
*1005 BUFX2_180
*1006 XOR2X1_163
*1007 OAI21X1_312
*1008 NOR2X1_198
*1009 OAI21X1_311
*1010 XOR2X1_176
*1011 micro_ucr_hash1_b[18][4]
*1012 NAND2X1_325
*1013 BUFX2_183
*1014 OAI21X1_326
*1015 OAI21X1_327
*1016 INVX1_232
*1017 XOR2X1_171
*1018 XOR2X1_184
*1019 micro_ucr_hash1_b[18][5]
*1020 AND2X2_100
*1021 OAI21X1_330
*1022 OAI21X1_331
*1023 NOR2X1_210
*1024 BUFX2_184
*1025 XOR2X1_172
*1026 XOR2X1_185
*1027 micro_ucr_hash1_b[19][4]
*1028 NAND2X1_344
*1029 XOR2X1_180
*1030 BUFX2_187
*1031 OAI21X1_345
*1032 OAI21X1_346
*1033 INVX1_251
*1034 XOR2X1_193
*1035 micro_ucr_hash1_b[19][5]
*1036 AND2X2_104
*1037 XOR2X1_181
*1038 BUFX2_188
*1039 OAI21X1_350
*1040 NOR2X1_222
*1041 OAI21X1_349
*1042 XOR2X1_194
*1043 micro_ucr_hash1_b[20][4]
*1044 NAND2X1_363
*1045 XOR2X1_202
*1046 OAI21X1_364
*1047 INVX1_270
*1048 XOR2X1_189
*1049 BUFX2_191
*1050 OAI21X1_365
*1051 micro_ucr_hash1_b[20][5]
*1052 AND2X2_108
*1053 NOR2X1_234
*1054 OAI21X1_368
*1055 OAI21X1_369
*1056 XOR2X1_203
*1057 BUFX2_192
*1058 XOR2X1_190
*1059 micro_ucr_hash1_b[21][4]
*1060 NAND2X1_382
*1061 OAI21X1_383
*1062 OAI21X1_384
*1063 INVX1_289
*1064 XOR2X1_211
*1065 BUFX2_199
*1066 XOR2X1_198
*1067 micro_ucr_hash1_b[21][5]
*1068 AND2X2_112
*1069 BUFX2_200
*1070 XOR2X1_212
*1071 OAI21X1_387
*1072 OAI21X1_388
*1073 NOR2X1_246
*1074 XOR2X1_199
*1075 micro_ucr_hash1_b[22][4]
*1076 NAND2X1_401
*1077 XOR2X1_207
*1078 XOR2X1_220
*1079 OAI21X1_402
*1080 INVX1_308
*1081 BUFX2_203
*1082 OAI21X1_403
*1083 micro_ucr_hash1_b[22][5]
*1084 AND2X2_116
*1085 BUFX2_204
*1086 XOR2X1_208
*1087 XOR2X1_221
*1088 OAI21X1_407
*1089 NOR2X1_258
*1090 OAI21X1_406
*1091 micro_ucr_hash1_b[23][4]
*1092 NAND2X1_420
*1093 XOR2X1_216
*1094 BUFX2_207
*1095 XOR2X1_229
*1096 OAI21X1_421
*1097 INVX1_327
*1098 OAI21X1_422
*1099 micro_ucr_hash1_b[23][5]
*1100 AND2X2_120
*1101 XOR2X1_230
*1102 BUFX2_208
*1103 OAI21X1_426
*1104 NOR2X1_270
*1105 OAI21X1_425
*1106 XOR2X1_217
*1107 micro_ucr_hash1_b[24][4]
*1108 NAND2X1_439
*1109 BUFX2_211
*1110 XOR2X1_238
*1111 OAI21X1_440
*1112 INVX1_346
*1113 XOR2X1_225
*1114 OAI21X1_441
*1115 micro_ucr_hash1_b[24][5]
*1116 AND2X2_124
*1117 XOR2X1_239
*1118 BUFX2_212
*1119 XOR2X1_226
*1120 OAI21X1_445
*1121 OAI21X1_444
*1122 NOR2X1_282
*1123 micro_ucr_hash1_b[25][4]
*1124 NAND2X1_458
*1125 BUFX2_215
*1126 OAI21X1_460
*1127 XOR2X1_247
*1128 OAI21X1_459
*1129 INVX1_365
*1130 XOR2X1_234
*1131 micro_ucr_hash1_b[25][5]
*1132 AND2X2_128
*1133 BUFX2_216
*1134 XOR2X1_235
*1135 OAI21X1_463
*1136 XOR2X1_248
*1137 NOR2X1_294
*1138 OAI21X1_464
*1139 micro_ucr_hash1_b[26][4]
*1140 NAND2X1_477
*1141 BUFX2_219
*1142 XOR2X1_256
*1143 INVX1_384
*1144 OAI21X1_478
*1145 OAI21X1_479
*1146 XOR2X1_243
*1147 micro_ucr_hash1_b[26][5]
*1148 AND2X2_132
*1149 NOR2X1_306
*1150 OAI21X1_482
*1151 OAI21X1_483
*1152 BUFX2_220
*1153 XOR2X1_257
*1154 XOR2X1_244
*1155 micro_ucr_hash1_b[27][4]
*1156 NAND2X1_496
*1157 BUFX2_223
*1158 OAI21X1_498
*1159 OAI21X1_497
*1160 INVX1_403
*1161 XOR2X1_265
*1162 XOR2X1_252
*1163 micro_ucr_hash1_b[27][5]
*1164 AND2X2_136
*1165 XOR2X1_266
*1166 NOR2X1_318
*1167 OAI21X1_501
*1168 OAI21X1_502
*1169 BUFX2_224
*1170 XOR2X1_253
*1171 micro_ucr_hash1_b[28][4]
*1172 NAND2X1_515
*1173 BUFX2_227
*1174 OAI21X1_517
*1175 OAI21X1_516
*1176 INVX1_422
*1177 XOR2X1_261
*1178 XOR2X1_274
*1179 micro_ucr_hash1_b[28][5]
*1180 AND2X2_140
*1181 BUFX2_228
*1182 OAI21X1_520
*1183 OAI21X1_521
*1184 NOR2X1_330
*1185 XOR2X1_262
*1186 XOR2X1_275
*1187 micro_ucr_hash1_b[29][4]
*1188 NAND2X1_534
*1189 OAI21X1_535
*1190 INVX1_441
*1191 OAI21X1_536
*1192 BUFX2_231
*1193 XOR2X1_270
*1194 XOR2X1_283
*1195 micro_ucr_hash1_b[29][5]
*1196 AND2X2_144
*1197 BUFX2_232
*1198 NOR2X1_342
*1199 OAI21X1_539
*1200 XOR2X1_284
*1201 OAI21X1_540
*1202 XOR2X1_271
*1203 micro_ucr_hash1_b[30][4]
*1204 NAND2X1_553
*1205 OAI21X1_555
*1206 OAI21X1_554
*1207 INVX1_460
*1208 BUFX2_235
*1209 XOR2X1_279
*1210 XOR2X1_292
*1211 micro_ucr_hash1_b[30][5]
*1212 AND2X2_148
*1213 OAI21X1_559
*1214 NOR2X1_354
*1215 OAI21X1_558
*1216 BUFX2_236
*1217 XOR2X1_280
*1218 XOR2X1_293
*1219 entrada_hash1_contadores[2]
*1220 DFFPOSX1_60
*1221 AOI21X1_323
*1222 OAI21X1_567
*1223 NAND2X1_611
*1224 AND2X2_168
*1225 NAND2X1_615
*1226 AND2X2_159
*1227 entrada_hash1_contadores[5]
*1228 DFFPOSX1_63
*1229 AOI21X1_325
*1230 OAI21X1_570
*1231 AOI21X1_326
*1232 NAND2X1_613
*1233 AND2X2_169
*1234 INVX1_474
*1235 entrada_hash1_contadores[8]
*1236 DFFPOSX1_66
*1237 AND2X2_161
*1238 AOI21X1_328
*1239 OAI21X1_573
*1240 NAND2X1_616
*1241 NAND3X1_491
*1242 NAND2X1_617
*1243 entrada_hash1_contadores[11]
*1244 DFFPOSX1_69
*1245 NAND2X1_618
*1246 NOR2X1_391
*1247 AND2X2_163
*1248 AOI21X1_331
*1249 NAND3X1_493
*1250 NAND3X1_492
*1251 entrada_hash1_contadores[22]
*1252 DFFPOSX1_80
*1253 NAND3X1_495
*1254 AOI21X1_340
*1255 OAI21X1_582
*1256 INVX1_481
*1257 NAND2X1_631
*1258 AND2X2_174
*1259 _3350_
*1260 NAND3X1_490
*1261 NOR2X1_399
*1262 NOR2X1_394
*1263 NOR2X1_390
*1264 INVX2_82
*1265 OAI21X1_574
*1266 NOR2X1_389
*1267 entrada_hash1_nonce[8]
*1268 DFFPOSX1_34
*1269 XNOR2X1_226
*1270 NOR2X1_410
*1271 OAI21X1_623
*1272 AOI21X1_350
*1273 DFFPOSX1_226
*1274 XNOR2X1_235
*1275 entrada_hash1_nonce[9]
*1276 DFFPOSX1_35
*1277 DFFPOSX1_227
*1278 OAI21X1_624
*1279 XNOR2X1_236
*1280 NOR2X1_411
*1281 XNOR2X1_227
*1282 AOI21X1_351
*1283 _127_
*1284 DFFPOSX1_1
*1285 BUFX4_11
*1286 BUFX4_8
*1287 BUFX4_12
*1288 BUFX4_9
*1289 BUFX4_10
*1290 _127__bF_buf0
*1291 BUFX4_12
*1292 MUX2X1_24
*1293 MUX2X1_4
*1294 MUX2X1_6
*1295 MUX2X1_1
*1296 MUX2X1_8
*1297 _3299_
*1298 INVX8_2
*1299 BUFX4_13
*1300 BUFX4_14
*1301 BUFX4_16
*1302 BUFX4_15
*1303 BUFX4_17
*1304 _85_
*1305 AOI21X1_10
*1306 BUFX4_21
*1307 BUFX4_20
*1308 BUFX4_22
*1309 BUFX4_18
*1310 BUFX4_19
*1311 _85__bF_buf4
*1312 BUFX4_18
*1313 NOR2X1_17
*1314 NOR3X1_5
*1315 NOR3X1_3
*1316 NOR3X1_22
*1317 NOR3X1_24
*1318 _85__bF_buf3
*1319 BUFX4_19
*1320 NOR3X1_20
*1321 NOR3X1_10
*1322 NOR3X1_18
*1323 NOR3X1_9
*1324 NOR3X1_17
*1325 _85__bF_buf2
*1326 BUFX4_20
*1327 NOR3X1_21
*1328 NOR3X1_13
*1329 NOR3X1_15
*1330 NOR3X1_23
*1331 NOR3X1_7
*1332 _85__bF_buf1
*1333 BUFX4_21
*1334 NOR3X1_14
*1335 NOR3X1_19
*1336 NOR3X1_11
*1337 NOR3X1_16
*1338 NOR3X1_12
*1339 _85__bF_buf0
*1340 BUFX4_22
*1341 NOR3X1_2
*1342 NOR3X1_4
*1343 NOR3X1_6
*1344 NOR3X1_1
*1345 NOR3X1_8
*1346 _110_
*1347 INVX8_1
*1348 BUFX4_24
*1349 BUFX4_26
*1350 BUFX4_27
*1351 BUFX4_25
*1352 BUFX4_23
*1353 _110__bF_buf4
*1354 BUFX4_23
*1355 NOR3X1_20
*1356 NOR3X1_18
*1357 NOR3X1_17
*1358 NOR3X1_9
*1359 NOR3X1_10
*1360 _110__bF_buf3
*1361 BUFX4_24
*1362 NOR3X1_2
*1363 NOR3X1_4
*1364 NOR3X1_6
*1365 NOR3X1_1
*1366 NOR3X1_8
*1367 _110__bF_buf2
*1368 BUFX4_25
*1369 NOR3X1_14
*1370 NOR3X1_19
*1371 NOR3X1_11
*1372 NOR3X1_16
*1373 NOR3X1_12
*1374 _110__bF_buf1
*1375 BUFX4_26
*1376 NOR2X1_17
*1377 NOR3X1_5
*1378 NOR3X1_3
*1379 NOR3X1_22
*1380 NOR3X1_24
*1381 _110__bF_buf0
*1382 BUFX4_27
*1383 NOR3X1_15
*1384 NOR3X1_23
*1385 NOR3X1_21
*1386 NOR3X1_13
*1387 NOR3X1_7
*1388 target[7]
*1389 OAI22X1_7
*1390 AOI22X1_3
*1391 NAND2X1_1
*1392 NOR2X1_1
*1393 INVX2_8
*1394 target[6]
*1395 OAI22X1_7
*1396 AOI22X1_3
*1397 INVX2_9
*1398 XOR2X1_1
*1399 XNOR2X1_1
*1400 _119_
*1401 INVX4_1
*1402 AOI22X1_2
*1403 OAI22X1_1
*1404 NAND2X1_13
*1405 AOI21X1_7
*1406 OAI22X1_8
*1407 target[3]
*1408 OAI22X1_10
*1409 AOI22X1_5
*1410 XNOR2X1_2
*1411 OAI21X1_6
*1412 INVX2_6
*1413 _3_
*1414 INVX2_4
*1415 OAI22X1_4
*1416 NAND2X1_5
*1417 NOR2X1_3
*1418 NOR2X1_12
*1419 NAND2X1_17
*1420 micro_ucr_hash1_hash[9]
*1421 DFFPOSX1_99
*1422 MUX2X1_10
*1423 OAI22X1_4
*1424 INVX1_3
*1425 NAND2X1_5
*1426 NOR2X1_3
*1427 micro_ucr_hash1_hash[21]
*1428 DFFPOSX1_111
*1429 AOI21X1_7
*1430 NAND2X1_13
*1431 OAI22X1_8
*1432 INVX1_7
*1433 MUX2X1_22
*1434 _136_
*1435 NAND3X1_13
*1436 AOI21X1_18
*1437 OAI21X1_22
*1438 NAND2X1_29
*1439 AND2X2_6
*1440 OAI21X1_18
*1441 _245_
*1442 NAND3X1_31
*1443 AND2X2_12
*1444 NAND2X1_48
*1445 AOI21X1_30
*1446 OAI21X1_35
*1447 OAI21X1_39
*1448 _354_
*1449 NAND3X1_49
*1450 OAI21X1_52
*1451 NAND2X1_67
*1452 AOI21X1_42
*1453 OAI21X1_56
*1454 AND2X2_18
*1455 _463_
*1456 NAND3X1_67
*1457 AOI21X1_54
*1458 AND2X2_24
*1459 NAND2X1_86
*1460 OAI21X1_69
*1461 OAI21X1_73
*1462 _572_
*1463 NAND3X1_85
*1464 AOI21X1_66
*1465 NAND2X1_105
*1466 AND2X2_30
*1467 OAI21X1_86
*1468 OAI21X1_90
*1469 _681_
*1470 NAND3X1_103
*1471 NAND2X1_124
*1472 AND2X2_36
*1473 AOI21X1_78
*1474 OAI21X1_107
*1475 OAI21X1_103
*1476 _790_
*1477 NAND3X1_121
*1478 OAI21X1_124
*1479 OAI21X1_120
*1480 AOI21X1_90
*1481 NAND2X1_143
*1482 AND2X2_42
*1483 _899_
*1484 NAND3X1_139
*1485 AOI21X1_102
*1486 OAI21X1_141
*1487 NAND2X1_162
*1488 AND2X2_48
*1489 OAI21X1_137
*1490 _1008_
*1491 NAND3X1_157
*1492 NAND2X1_181
*1493 AND2X2_54
*1494 OAI21X1_154
*1495 OAI21X1_158
*1496 AOI21X1_114
*1497 _1117_
*1498 NAND3X1_175
*1499 OAI21X1_171
*1500 NAND2X1_200
*1501 AND2X2_60
*1502 AOI21X1_126
*1503 OAI21X1_175
*1504 _1226_
*1505 NAND3X1_193
*1506 AOI21X1_138
*1507 OAI21X1_192
*1508 OAI21X1_188
*1509 AND2X2_66
*1510 NAND2X1_219
*1511 _1335_
*1512 NAND3X1_211
*1513 NAND2X1_238
*1514 AND2X2_72
*1515 OAI21X1_205
*1516 OAI21X1_209
*1517 AOI21X1_150
*1518 _1444_
*1519 NAND3X1_229
*1520 NAND2X1_257
*1521 AND2X2_78
*1522 OAI21X1_222
*1523 AOI21X1_162
*1524 OAI21X1_226
*1525 _1553_
*1526 NAND3X1_247
*1527 NAND2X1_276
*1528 AND2X2_84
*1529 AOI21X1_174
*1530 OAI21X1_239
*1531 OAI21X1_243
*1532 micro_ucr_hash1_b[16][6]
*1533 XNOR2X1_133
*1534 BUFX2_177
*1535 XOR2X1_168
*1536 NOR2X1_187
*1537 OAI21X1_295
*1538 XOR2X1_154
*1539 _1662_
*1540 NAND3X1_265
*1541 NAND2X1_295
*1542 AND2X2_90
*1543 OAI21X1_256
*1544 AOI21X1_186
*1545 OAI21X1_260
*1546 micro_ucr_hash1_b[17][6]
*1547 XNOR2X1_142
*1548 BUFX2_181
*1549 OAI21X1_314
*1550 NOR2X1_199
*1551 XOR2X1_164
*1552 XOR2X1_177
*1553 _1771_
*1554 NAND3X1_283
*1555 AOI21X1_198
*1556 OAI21X1_277
*1557 OAI21X1_273
*1558 AND2X2_96
*1559 NAND2X1_314
*1560 micro_ucr_hash1_b[18][6]
*1561 NOR2X1_182
*1562 OAI21X1_333
*1563 BUFX2_185
*1564 XOR2X1_186
*1565 XOR2X1_173
*1566 NOR2X1_211
*1567 _1957_
*1568 OAI21X1_287
*1569 INVX1_193
*1570 AOI21X1_205
*1571 NAND3X1_296
*1572 AOI21X1_204
*1573 NAND3X1_303
*1574 _1962_
*1575 OAI21X1_288
*1576 AOI22X1_8
*1577 NAND3X1_300
*1578 INVX1_198
*1579 NAND3X1_299
*1580 AOI21X1_203
*1581 micro_ucr_hash1_b[19][6]
*1582 NOR2X1_194
*1583 OAI21X1_352
*1584 NOR2X1_223
*1585 BUFX2_189
*1586 XOR2X1_195
*1587 XOR2X1_182
*1588 _2052_
*1589 OAI21X1_306
*1590 AOI21X1_213
*1591 NAND3X1_316
*1592 AOI21X1_212
*1593 NAND3X1_309
*1594 INVX1_212
*1595 _2057_
*1596 OAI21X1_307
*1597 NAND3X1_313
*1598 INVX1_217
*1599 NAND3X1_312
*1600 AOI21X1_211
*1601 AOI22X1_9
*1602 micro_ucr_hash1_b[20][6]
*1603 NOR2X1_206
*1604 NOR2X1_235
*1605 OAI21X1_371
*1606 XOR2X1_204
*1607 XOR2X1_191
*1608 BUFX2_193
*1609 _2147_
*1610 OAI21X1_325
*1611 AOI21X1_221
*1612 NAND3X1_322
*1613 INVX1_231
*1614 AOI21X1_220
*1615 NAND3X1_329
*1616 _2152_
*1617 OAI21X1_326
*1618 AOI21X1_219
*1619 INVX1_236
*1620 NAND3X1_326
*1621 AOI22X1_10
*1622 NAND3X1_325
*1623 micro_ucr_hash1_b[21][6]
*1624 NOR2X1_218
*1625 NOR2X1_247
*1626 OAI21X1_390
*1627 BUFX2_201
*1628 XOR2X1_200
*1629 XOR2X1_213
*1630 _2242_
*1631 OAI21X1_344
*1632 INVX1_250
*1633 AOI21X1_228
*1634 NAND3X1_342
*1635 NAND3X1_335
*1636 AOI21X1_229
*1637 _2247_
*1638 OAI21X1_345
*1639 NAND3X1_339
*1640 INVX1_255
*1641 AOI22X1_11
*1642 AOI21X1_227
*1643 NAND3X1_338
*1644 micro_ucr_hash1_b[22][6]
*1645 NOR2X1_230
*1646 BUFX2_205
*1647 NOR2X1_259
*1648 OAI21X1_409
*1649 XOR2X1_222
*1650 XOR2X1_209
*1651 _2337_
*1652 OAI21X1_363
*1653 AOI21X1_236
*1654 INVX1_269
*1655 NAND3X1_355
*1656 AOI21X1_237
*1657 NAND3X1_348
*1658 _2342_
*1659 OAI21X1_364
*1660 NAND3X1_351
*1661 AOI21X1_235
*1662 INVX1_274
*1663 AOI22X1_12
*1664 NAND3X1_352
*1665 micro_ucr_hash1_b[23][6]
*1666 NOR2X1_242
*1667 BUFX2_209
*1668 OAI21X1_428
*1669 NOR2X1_271
*1670 XOR2X1_218
*1671 XOR2X1_231
*1672 _2432_
*1673 OAI21X1_382
*1674 NAND3X1_361
*1675 AOI21X1_245
*1676 INVX1_288
*1677 AOI21X1_244
*1678 NAND3X1_368
*1679 _2437_
*1680 OAI21X1_383
*1681 AOI21X1_243
*1682 NAND3X1_364
*1683 AOI22X1_13
*1684 INVX1_293
*1685 NAND3X1_365
*1686 micro_ucr_hash1_b[24][6]
*1687 NOR2X1_254
*1688 BUFX2_213
*1689 NOR2X1_283
*1690 OAI21X1_447
*1691 XOR2X1_240
*1692 XOR2X1_227
*1693 _2527_
*1694 OAI21X1_401
*1695 AOI21X1_253
*1696 NAND3X1_374
*1697 INVX1_307
*1698 AOI21X1_252
*1699 NAND3X1_381
*1700 _2532_
*1701 OAI21X1_402
*1702 NAND3X1_378
*1703 AOI22X1_14
*1704 INVX1_312
*1705 AOI21X1_251
*1706 NAND3X1_377
*1707 micro_ucr_hash1_b[25][6]
*1708 NOR2X1_266
*1709 BUFX2_217
*1710 XOR2X1_236
*1711 NOR2X1_295
*1712 OAI21X1_466
*1713 XOR2X1_249
*1714 _2622_
*1715 OAI21X1_420
*1716 NAND3X1_387
*1717 AOI21X1_261
*1718 NAND3X1_394
*1719 INVX1_326
*1720 AOI21X1_260
*1721 _2627_
*1722 OAI21X1_421
*1723 NAND3X1_390
*1724 AOI21X1_259
*1725 AOI22X1_15
*1726 INVX1_331
*1727 NAND3X1_391